* D:\OneDrive - Australian National University\Shared Documents - ENGN8170 Portable EL device\Repository Documents\Documents\Electrical software\hv9910c schematics.wxsch
*#SIMETRIX
.print
+ ALL
.options
+ PSP_NPT=10001
+ POP_ITRMAX=20
+ POP_OUTPUT_CYCLES=5
+ SNAPSHOT_INTVL=0
+ SNAPSHOT_NPT=11
+ MIN_AVG_TOPOLOGY_DUR=1a
+ AVG_TOPOLOGY_DUR_MEASUREMENT_WINDOW=128
.tran 10m 0

.SUBCKT MCP_MULTI_PWL_LED  5 6

.NODE_MAP A 5
.NODE_MAP K 6

*
?@@--START ENCRYPTION: "MICROCHIP HV9910B Encryption"
?@@+6VYvonhZ4h7XXs8ox7wkwl/QYNpAZZXGpWKTszbbuh1Xl3yusXqGrv4Gdi1T7S7V+uk?##
?@@BFnsepfUOB73v3OeiI2ln/laVLJbVdVQdn16KPV90sdS1X2RzK7VUPW3+uvRZSq8KksS?##
?@@tUsZlZE+1bug1T36m+QXJfxm2wp/+YZvbgPL1/srzAkq6cZgxcxo/LXaJhlR3ZNmu72z?##
?@@Co14kEMMcAWYmZ+6FqDcet9s8aEokuMqh4IQ5bQJKprAu2fQdsulD7o0Rc7PI3bThAS2?##
?@@7z6MndjSUq0IurU2TbMwiT2vv4xTrqXg8SKB057G3pjZ9AoTiohaxWN1Hh5mIyCAgNXW?##
?@@EMDqojOtZcEjNIv1xcyxjhbb50wYBihzw6+Q1zC4lDh6GKllc/Z+sC803/4tK7n/JJHE?##
?@@AT/MdUTsLT7yvrQgpd4w9/s+R+3BOiluYEdaFkcMkLun1gKBxwHKAB4qbJhV9Q00Yi5g?##
?@@4s6TIEGwcovD/noBszduNG9MIRwbqTtYw4mD8govyX3CyktT4mVeZ6wBhhwBcWZg/hGi?##
?@@kyev23UqUf15LodHWiiZ5mTPmEgjHE//fwE7f8xQQaGpwZJ6CpOw90sR3mqlOVyx27VX?##
?@@QF1/NMyXmBFIyODuSLmbdy5NF9KIae6eAvjr/C2r7bLtqC0AamOC8um/vOkOLAzK2cS4?##
?@@PUNFK2QgaNVIO/wrTv6MrwWq5YAMew/FOBTeB/weQjgahaCwKeISaBCIhXvARrlmrfrL?##
?@@ZqRUUrFtXOHohObg6PqabQj4MtDhkZQFRoWgWPfhHgkhRX/+2ZsiYUPywkbjFeK6pxDI?##
?@@UwDpw2qIb1h3vBlVnNj36TU7BVmSm5fSGKWou/7o9pOW73hGpMqdDgqQtb9GyvsnoHL9?##
?@@jOoqcNYmLiN0brC1ggMaub29db/Cs0aufNx0xwV//jA7P9Mdx6itVyc+yIiDV9U8S1KG?##
?@@6QoZi5QdoZv2VpzwsH+DNJwX+Lly6wGC6MsK6zlf5ENZKFYZZ1i3Xv81PqsHH2McYJXY?##
?@@mmM1RbIOENDZm+bt6LVV2fo/aaSLGmcTxwjZkHZDmmrnNLaI3FWfv435twMqGymYcIvF?##
?@@94IkYCVgkDYq3LmtZ3EMa4HDBvSIJRDo2qGXF4EoiwgSk4i3Sf1q6CluWGjvbsesG8jt?##
?@@DJ6eQQaV0tIMYdqC/K+5JPI/clTyv19+zYLPzkaRLl0CUCAV40vk6mfFgig0iDl+u0K8?##
?@@PUNFK7k+tCzCFyxQZDfS/KzswpeAovVWmDLMSsMJ6GetLTERrvpPoG0RO71luNyR/C7z?##
?@@3qtHv+1NCbu2vUhrJuv+da3rpvhTVdLKjifzkDax1Gdd024dLGoWEMlwDt1VgMDBo9Pr?##
?@@ywjcMBBOHfNN3EeLqdX8oNoXp9fb3IESKPcVB3PJQr/YRIGghIAa1NRBzXpjbqf22Y4Y?##
?@@ADe5HfEEsAKDZgKONxasvYE5Q8iz6KDmiDOP26uwql0XwG17NDxPo7kdvLzfkimP52rG?##
?@@ab2NW2H7vOSWM1570U0o7v3UH99p8SME42c45mmk8czgSFK8Qj/ObHwH4GlqqVblf6oF?##
?@@FvRdtRWL18XTmMpiBEljQ5QZF4YsnCM0mDsbTMvSHKemRCFGBMBtWTvWSfV8tUWELpoH?##
?@@001183GblXMHUjaOpRYH2z1fT1gt6Bxciu0HmyYFtfO6k/GAwlyt1RS+LEr20aNjacDT?##
?@@wKoKZNCyYyUqxUpe1trQWHbP/uD+UJeAGT/KTQrabnlWX51oxCKnGZ82aRP6DAQuMDaC?##
?@@Tc13sRoW1Vd8z1k7xC31DrpCzvYMnbuzK118UNkJy1mIqJq1+LEWoVvAh81nkLAQazZQ?##
?@@sjH/jslmmqrVGUV3+e8t48MQP7idbC/oISDNPsZNqFdWPXJxKaZwqgB7nNZgWvQj7sHS?##
?@@C5WL6QViLNQ+7R7uHPrgxd2hhdeOzK2ziYeRTPdCdCJPPqqxoWa6VsGP2P1l8QMdEZXv?##
?@@mFIPlR4PuQqzehllOWN0RJjwe/CdUaoGgJXQ9HhMA2CIdMzh/fPy35xgfxlTfNWzbR9a?##
?@@KZfHRO3QIKybbI8PVbzmRw9Q9iZjUh3P0n6Y7RHuXo6HCZkrDjRENqrfugsiZG+7DA7G?##
?@@Dq/E8tWjNo/sXP7mTug711KHAahAURw7ygxzG1pqmEC2+m41bfX6J89ZRNa8rm6T+fhN?##
?@@u3+rqlvoPtDhcFo5txNSLBTF17gU1oBufDwH1Du1ude2pjbqSOalhptB/OkNTDo4BKx7?##
?@@/K2EGnZ/LZR5ollw3iHUr7vYPgeMlzuX2ffjlUZbXdGuu1G4BsdDwWyx9AFuKec2xtZo?##
?@@8U+yTiD12ZhBPeG3tJaI7F2eC8+UsY/8wn3SqjDMY6P+h2CNzISSYqDeS4N+2G2MIMn1?##
?@@Qm6l5VPrZi7QlwgOn+BHu5JR4CIlCDT9sLyAmtKj80xBNiBYw19fdupOeuEO6OhwS0ZV?##
?@@UwDpw0YlUsAYyCzSZjv7/Uv01xTAE/FbNEo4Uts6kNTTY1vwkiCY+qxE221fyKWeoCAM?##
?@@eD6siR5dOoXj9/F+HoNQBIiY+wMQidi9bwU5LEiqMjupCxt102GgTbOGqYpQsOS0lEi1?##
?@@8U+yToR53yy2o/WDAoCDFw44zxFbugGvgfriYcfBsiJ9GlmF0I5O7hk1EuBVwu9pGzXs?##
?@@8lfFpjghnHBEI/wbPKlZPzQRQ0ZBlhLR0pchxhsw3m6H7QxBEFkzaRinCOhQk+w5JcCg?##
?@@ywjcMAaGjbT/sDI3va8QmQrqM89A9265+AY65dgK/Z5ea4/Q5mQpBNrPBSmVpVoIxCAA?##
?@@jOoqcLJDxqZI0ZuyBG/dh+AklaxF1SNBFWLIXfy2252ogy0cgPRdzTGlcFo9DgmdZGzA?##
?@@ZZtB+sj/Hq5PdGgCaird5/1LZviss/E95jNDWOc8GZ/HJnZ9m6T1wKunmcnsyN4IHWTW?##
?@@EtEQUyMG40Pe+tOJlTEewjkse5pRajahVDAzSU+PLdfevJ4D414B5ovTdne4s3jOQgJe?##
?@@n46U/8wObF4JPXDZXiuTNP7NIpbxdlXRQ72T2MZBXkcVPW7zlOC3NFwtKgO5SLqw93PT?##
?@@DJ6eQf1j6nxcJOCG0XOkFfSntE8kKgSDFFIy0e8i9fbEUhjrMPClrVAS+tw+elLXsNAs?##
?@@Ecn9+2tSDYr1dKNDMRnm2YxHDzMFCVYSUlhO+moigtJYLs80vcwO5upNHSUqpraSZbDJ?##
?@@itkDwFmSDR8HL7NBjiyI2tKvfepmOTQbIItXuoVgh1da2z42I7D6Cg1fplFhmtxU0eqN?##
?@@D7jXSvDSJC8xXksKbceFeCrSGiiSkP++TP3nbCQj2FRmUvi0dUwkQvyH8LfcpaW6Gk06?##
?@@jOoqcPUGxA3q2CTCI3X+omrlcptm9jfrdy+L+5kEQy3tVT3WHY/AzqUZtQLGY7P9T9oV?##
?@@dSVygKqZFYXfpvWvLni9Ns5L2BWnh3gObDXxirgdXChvDuAbwM3j7UZ9XDnphID9URIq?##
?@@lkDo5IK8xCz1/kPZE6LomYji0FHEEHm8hYzTEU7ekLVtEBfAFtqCHKfr0YLPAWpR1gLH?##
?@@D7jXSlmZXZfYadiB/981qenRr2y41+ezYKcwRyKahZdfRgfDzWd6iqGzWv/TZUO//2Yp?##
?@@iMjdD0fmEEE/Ezpaf3jiwc1ugFCWJ7TOAr82VpsPZp1g4plzng8hOvmsCwh3CrrDgNIM?##
?@@yfe2f5OoA8aRi7AFkmTiITc4K0EtbacWsgJ09CXLbHJBXzaq7O7OtYKTc5u1yZxOavpG?##
?@@Xl+7j0mnVZJ6ORoZp/qPDU3SapX3w6IkcgUJvvpee5BhZI6qW97bsqfTftysjMuUqG8I?##
?@@6xs/Ow1Z+2AIWcBhRuFCSJlYRe+7Q56Qyy6+AFUILtxhRVIuCQOUxADOt+FKDhux1fks?##
?@@CHtR4BInWIAD4x9e/tLv6p8D++qzMdscsMO7VC8yv1b12dY7iVnN4rdiNcz7nFOGeKc5?##
?@@oZ+psDkV0dV+DZ5/QKBw6g98rC1RrikWV47qvnrCSz5jV5uA7fNnPNdkKuMQT64FRdTc?##
?@@--END ENCRYPTION: "MICROCHIP HV9910B Encryption", 61 lines
*
.ENDS MCP_MULTI_PWL_LED

********************************************************************************
***                                                                          ***
***            Auto-generated ASCII Library file for component :             ***
***                               HV9910C.sxcmp                              ***
***                          Created on : 3/12/2018                          ***
***                             At Time : 1:12 PM                            ***
***                           Using version : 8.10h                          ***
***                                                                          ***
********************************************************************************

*** POP Trigger Gate information:
*** This model has no embedded POP trigger gate.

.subckt HV9910C  32 33 34 43 40 45 44 39

.node_map VIN 32
.node_map VDD 33
.node_map RT 34
.node_map LD 43
.node_map GATE 40
.node_map PWMD 45
.node_map CS 44
.node_map GND 39

*
?@@--START ENCRYPTION: "MICROCHIP HV9910C Encryption"
?@@bNeuYYfVJciErnXS/kuKb9+UFXlyRiQKRTPf2vGK0Av1D/a6MExyzae3gJ8j49BQjtLW?##
?@@zRnp3DEiY/f9GPLBdhlMifjrn4o9ae0ptjsxAL+4pAV3CpMHyQQCe/ECu/SfIaZ1SKEc?##
?@@MuVUXV/Eys25ej/iVOdRtguX11F6CSVPJLPTdwKgm6pQKkZ8vW+977+tWM7mkzgCOZWa?##
?@@u3+rqrvsW3+OqVav73Kbt878ralBChBZJXtzpwZkBYQVmrTgnhe93kwlImYJS7TCAaVn?##
?@@rP6MfMFhAX56MO0/9uJ8uNlOgQGNE1Phg1EeW27LkOcLTA60YnVOugkFe+cqajWz25Ca?##
?@@zRkC4LM+3VF3TV37jpoWXyPYVRFiUhT5bFa1DSF0GGvT0qxqVDw1hO9qEyPEFqIEDMD+?##
?@@cgs5d2B7HP6Ay0FQ84T76r5MYjlaw2ZnBDgLFffGuPY1P3vh5cbwfVBiqNZ6p80v2WIm?##
?@@25IOtTNe4MUzp/HhBhLnEEgo50w/dyjLlDDeFDKEHzUSKnStMJ4x2L+RMZVQHIcsn3Ck?##
?@@PDsy04HV5TydJUv66/dzOX1kEZ4dyue8SLNFcOh1tKBWf+dLpiqe9lTSmjRdw4JfgWD6?##
?@@gYxYpJLR4Xk0OB8XZeZ7/vvwNtvaOo25jhDo+DfHN0AcEUOPZE3T9dpzWXrxHA08pgSd?##
?@@unaYUas6ioOKGoB50vTfNqUowrY0x0l2ZHRWC8o/q3FZmkKiBoTVhHUpq3OIyy/qAUz9?##
?@@e1jlknoElT0ghRKO2S1dN9kYZSRal9FvfvSaZJFfZ/3NYEOfWSryeSNWeV37FeX9C1h/?##
?@@5N+60Z+9fpQVTK2XEcFYWJ4gcpSgpDQSI2C0pPHHWy2zxIildR75gYzaovzyGe7nauPm?##
?@@1V6boy09DVA8IyxV7BATuqtf6zu6OBjCga7IgmhM7Ypw3/NHu4w0+oYiIHoiA4vg7u3G?##
?@@elDSOhpGBYU98h0ev5O8NdcK6NLYPanKwCnRBgaQULwlZHn9nCdm5hDLDVnORutvb6qt?##
?@@J4ahk1tM0jNKT/ETNspihPCFt/FCt++ZmSqKG8Plfm1nQqWy81qzuVshb6/cck+VDc5V?##
?@@VAn8HMHP+WL7bKq9RKaC+j5iGUbOrw7MixgWXaHzCRdRFbogzEAyTrrnU05R8eUMXros?##
?@@/baXcuQ2CUKPTgDZNx/Xk93yiKktu0yPZQPmFuVnNhide31JgTXCXdda19V/eQ+fdJZb?##
?@@Dq/E8mYAsc0R/6RWw1AqcXh9Yi/m+tk0P6jczZg4sjF3shMyqhQXcwDJIUHyMDgylUt4?##
?@@l0n8PFwdJEBhD6B8cW/9wIfWJ4blGMSlg/F2c3SpV6EqYZX70yNHibT7pEuiJoZN1j5K?##
?@@yO6jJvBKmy7BtbmVcUlLNXE97C7ZvnWC+Z/DFM+ZY/deqEPbok3hqYFEm/izlR6WBNeb?##
?@@wbIdvJxFEMDOXqot6ZrxGz4P7+YuhaNRg53tn7kpbyg+WdDgMkfTThSRJljPas/GnWIs?##
?@@KqDbnK2f4qg2KDxZ+S6sXM/l5xcvnDDiTVfebybhjT5ylNv8oYOTLpQfg0V0tkeDE71Y?##
?@@Z6xnq+81NPJtGfj3Qy6DNe6C1jV4N1A2gUpzYhVSK3Waj8IVsQstlA+6lBJzeTdZ3CoC?##
?@@aLV6A+uWhw2lTW6wJ53IJsiKQYWaWONpK5RHBLAXUACTgT5ERJrEMNlBZ6GrHRtbhdyF?##
?@@0TxPQoCG5iF5xyL/3BRGJ4Qa5932tl1mSq1pJ73gi6hCiDdX66QIi1RugFdAMhvVmAvA?##
?@@1meu/BTOssPuXYZbBdZd6PY9XhT8++sfeQct1FLkRVyfH6MDHK9moZifgH6DAi9Uo2zb?##
?@@x+aQzoJkIpQMjnA2J9uQqg8peO5yNFsQro4WCEdBn/MdPOSNsO8s9X6HCJ2lwXL2hypi?##
?@@tEIlP2AtBTceCFF0Hj2V2cKZye85nCbUQ/+JwCM6GoJj3pcMbVxy4cjwTDv2bWZrdIDO?##
?@@BWIY1q+paxwRDWWHTevq0FnevPZFrA7Pv1vXCaYNyxszocMq3ANXbY5NsmGFKjOng1Ba?##
?@@BmorL6EgtOhh9VNEA0rO2PWOn4u72+H170FFH79MAFC8vx4+Bkmj8hYDf/Iv0jOQj4kO?##
?@@M+2GtzMfnkTjI7cZIztHWKL6jF93J8vmq2H13qNno6qgMWSE7e8/PSPnxct5lycuK7LO?##
?@@uGVyoQyYirXj7D4EJn3R6JxBHWgHhKyWOO8+aYoA1oMdBFpvYHcD4Mz67EaD+UsNrPoI?##
?@@6QoZiz5uHkBdh8JrkAFJXTzKkG+USVtjFgoXFIzML1awcJlMX5S7BIiy5ZVN2dWTjOvD?##
?@@PkxYg9JRXJYz2ugRKJGGlDgq26OSoR3ydagePUtEarGf8bs24XuqccB/hiBDiJfmd+s4?##
?@@F/xwDa1SBfVlgGBy3c+OG/ZmC5xephervWO8SK0pSJjjteGD9bIi5uIdi4PFDYGVgZ9I?##
?@@mFIPlfEGUwr8dB2HT9Rkux/ksyhOfizUyB1i6LAJJHZWMejmLdYA9Pm+LQOmHwXx4SHF?##
?@@mVoi7ZuBvARsSjqJsLPmspbz+66dENCguo0ze4fuZLZ38EPKofInrwpdyeXwtjYoAe1a?##
?@@gpRr/XqeR8+5d+qnWbsuUxPkQ0o6LaYrGhgeVP8Kq1yxCVcXEBymo4x3mMQ7j2CG7lg8?##
?@@OzIfenxuZfMVj7fZg6GNxiZOlj2f9ipAwUJdGXfdTLhSU+eO1mFEKU7a6Xx5HwVQ8N3k?##
?@@pLn0ubwfWQnqSH7e0xD6ynp7Kcc7hyop72tRsdhhdu+UYQIggSuWasXg+yWjIs7/8Ln3?##
?@@ha6kBlpsYk8iS/IkIVazxoI9m07N1xX7Td43lkw7Puxnyqq+0wA4JI5jMNp22Q5zI8xI?##
?@@MuVzX5LP+w0qlQTMuOef8R3aUe4zi3atIwscHmY9fWIk+AjRt7IbaKs0gB/xR+Xtm2M5?##
?@@6xs/O2IKw3LX+gbZIMeydAMgwhOEnVTZESd3rszIRHKaXp+ZGPUTmUIkpVj6X7c6FyBA?##
?@@5N+60RT3v8Xh6MGF4TrUpaPA8yuIqINruqWt+UVyTGXSJIh+UPK17/+REvgyu166n0Qm?##
?@@beDavQP9YLYoMZA5ezXLfFH2rBFWrRFGx0xdGCIRfjlsw+uG1OLDj5VKi9mYrKSd1GTG?##
?@@MuVzX0qhPOyNg1fQoPZ8qkBUt/iSyVvajVdsbrJPgKuigHe59vcTuN7ghefqC8UCp3fc?##
?@@x+aQzvOa93ljW1ryWLT2/peRUY7/USfYoqylYgjE1PFyx7QY5+2HNcNTEOrkpUfEXkrc?##
?@@TMRkWVLxcSjpudxs5//aN7NUmFNs82DQ7swCIDRcT+4et/SOlFxpFcC6jpEfZRjlv/cD?##
?@@oZ+6sKqsiTyEALaFvVjU/5YvVfztdhnZEC6a3MrGf5Z8a5O/eTSKjQxDuFwY+fYa1+0u?##
?@@VhojzAbjK9LDrI4wTPO+z/W46Uk9dWSd0FtEvH4yGXjJq3cVacqC2evY0PpOET7TtpbT?##
?@@kyev2/jW7B8KaqmxJeFkvbnc83ioEei+7EakkgBxa3ytMxty435CGnUklESd0feCSZ8l?##
?@@YHDiQAHRlPJVeiPALc9hQTidMg0e+s4HT3UViPhqB4T5mpnh05v0ZZqB6DF1GB4V4Lco?##
?@@8U+yTtScihktz8Kbt/Me7dsB79D5rAFsYwAfMvff7psq6mUgs7JGs2GBi462PQKyI66V?##
?@@MuVzXwDTbOEpsgmavLcgsDjVDcdjWIlfs3fvYQmbtGAc5qEx8pcFmO1eUkY9yMeIAZBw?##
?@@M+2Gt8ZK5MzT+VrTkpzsQ7Zrwap4LZVPRrr/NBeFGjH+ToFWCDX0kfDf6LqLTEswZrHW?##
?@@JGxoigJIBWaJMVZW1Y3cf+Y5fo7lrH+EjAgMmmReU7ZD55oBuT6Bw/IlqbCKZsukbtpp?##
?@@JXV74ix0b8SlOlxEOove14Jz9V8GsXhwPyXx5KIDcSYLOzWXX0LmnLAHkWomOzwmX0pG?##
?@@3qtHvy37dCXkAsOMts8W0WTnfr4mBr7lA6p0HPZ2yarzVPwFUpjPQTRAEP0vdC1RfcNe?##
?@@szoS58ct7V4ScJ7e8WhrQ9ciyFW9LAvzyif8JEQxeifT4B3nrM1iBf96/Ms3C7YYwU6Y?##
?@@+Is3uKMIvQYnNEU1cIrfhrToG2aAqMNuUcMnU6GT/E1WhSLY0wXgezcb3FAxi8vtprPE?##
?@@7Sxl7MbmzOT2p7sAUunDglYG5Pv6KqgiNkfafMpDK0tvzR2u+7gbpgOkVR8brbkcXD9n?##
?@@xt19dr/QONd5RGT0tGFglfo2ZsOgUvGSYyN5cO0m2uXHZhY9EYF2urqj7bY+wOkrEW50?##
?@@001187Jsgn+HypAjV0/R3VgLt7kK9vrC9XzAG1PtTq+WlJNU92VbOSrAOPN4ZQqCcQc3?##
?@@JGxoisRfAYcfTaDQKXzXZjy/n7dZw3S+tOAdejgYmsCFIk2rgxOTj6SplOCXl0Tr+oFb?##
?@@ha6kBiLfgKe7XSBnD+AYKvm2qNNolBsQ9pmrNVOTi8LXoVVNLsu1BKdTvA9mwuiogyxi?##
?@@elDSOs8Or9rv7tLZSzfU3i01U9QYCj8RcaM1eQt+bADNmxPVuDs2M+q2nl0Z/acuy1XR?##
?@@R5kEn0kAY9kbOeWTQ8rbwObqWCit3bTloBdTT8UuBv0AcdFPhu59FyVjScrSggbYyZHp?##
?@@UOawug2ZaYzowBvD/6FYJhaeBq0RCNGcMC+tmDRsjRh0Fj+fVvIkxzMkzDx4k66Z7dHI?##
?@@sSnsNkaFi6L+/cUSmM0MsC2ENy4gFjnIfHGxKhzZLBpD5pxmImtRPE8QruN+DTxCNhpC?##
?@@fnIem8xq1fhBOPOjF/PU2O4hznzQWkYjiDt9WiP34Jbywi0RwgrVECQFfaQSazLDX+ds?##
?@@szoS50kYbAXebOr35vAdKzVs2u0xz4eKz687zHwt4OG1O6DUX6K4cGlUixEex/aRLRDg?##
?@@oJanWGZHEsZE2pJwTNuGOT0rKCiIk8uEMph0eHtQ27dYcuyY2hoFRI4xitrgw77DeajY?##
?@@8U+yThaYoeguqIGeCzuMrQKYEoJ0UtXekdwSSKv8EVPObVrneYt2F07N7SNeqWMulMGX?##
?@@1meu/LaD0+992vK1gbJ9CnlHXbqJxfs3q6bnpcZLn5XV2gcdN6w/mw0JOnQmCroedsDt?##
?@@b/EAbl8DghR7HpCNW0wcyAy9W8BFZfR5GPQLx/iUG705Kk2Q7MYhmnRsVoloiXchtFYD?##
?@@ZJIuonelN/RszjMJILddlLGrv44YhszToIEZe64wwyL0NJ7s91PbSBYBviblTyE7JjW4?##
?@@GQ6WvssTmltREvrpJwX1/OOvdeOejIa/8TNTUWqqt4UL2YQttPCwD2/gKBXpE82lUTRj?##
?@@4s6TIBytTGB9y0BPVIQSnHVA0Y9dIwpyK1/cy3SzlnzxganIo2yrsDP+rtFr7iPjL5K3?##
?@@/8e9IxdreUF6TVmIdgnps/TEYjqLWvb+MTV61TVyYhTjNBIffFHeFolQfsoHzPveatYB?##
?@@CHtR4CZHg+a9moNStZ6wn6Lu/F/D75LPdA7y0Dup8e3CNUOjaXEGFfWMqKphzSg4cCob?##
?@@ha6kBhb+qPupEuEYZEJS7azo13Awq/v/yqjLWgXLFhlT2MrFk1N+uo6zML16vdvWwMP4?##
?@@6hMs483OTgPt01SuH7+k+du7d6i17ge4zQYL/iZKhCt3fuKLbXLmCSiHnHWMEM+xa5wK?##
?@@A1DyJq1c/+f/4FKT9J2o3NFFMa6shYROGblTXsdPGGB4cJPO9/tgKjIu7GF4agtRpgCR?##
?@@VAn8HBdsJAcI9PAn5D8fuvhVorXdkEfUKKKVpk1x6Cv+653kY7kYZSc9G6tDaJCEYdeX?##
?@@ha6kBuyGiZ7+pmPqFuiAMMosJg0n5DRif0McIxWAxeIZdlZ2JCOYOC7hBp3pIOzZCBaQ?##
?@@lkDo5BuzFgV02hTEGHBrfQVt+RPSJFYNpRcloOC3ER9C8HC51aDtLhtk3QQlBiEGzy0D?##
?@@P1Rs3MrYheyeDpJjNSk2J+L1uHQQt7dwXTr9dUYQ2OX0Rimhx3RHMnxx7NodumkQefcF?##
?@@XE6V33WiFb8qWTg50E3N/mcti8KbJ21E2unNF9+eMaMuNVQ9DmSltHRWx1S4Zy96r0lh?##
?@@6QoZi0YK7a+QA+WYjBkp46wq1gPCbV+BtIKxhhglqdFny0j+9StwbytmIInzhBzet6os?##
?@@Co14kGc4CqoDrCn2+b9lMz7Dej6N1kq701i7NHiQ4fLEnfceR+k5ztUJm9mbYeF45PMA?##
?@@l0n8PFrjWuCUw4p3gl7NvOFJF65MHo8GLOTQuK1k8x5TmPrCrgr6f0/bCxlApdpPjp6d?##
?@@XE6V36NFe34fjn7f8wKnKFhgPZx3nuOQSchp5Tw8kzaJWuLp45tmzOnqN1XSkBwNcwMq?##
?@@eUe/4aqlP8lxaxVSJLl5BIcFdxbwWHRaaRP+65N4cp5RVvCbMZttTWWP+4CcYQUsu+Sz?##
?@@lkDo5PAmpdGIUWl3dmYaPalcGziLXKJPJhOmGDw/br6VT7IPjUO4FEf5OHv7+2I8FeQg?##
?@@e1jlkgQ1nE8IPBTSYlhSET+RJexLyd6a2SVfhyCNkDb/FGpISo7CvdMfkcxBkDOQzR90?##
?@@tEIlPzgWC3rNhvajO39FZFRVdnuvsCgoVBNf7GZDHR6pV87qZgNbz4EqfndGmfPFwDo9?##
?@@5ejNKTjBcCKTqzqboP94wUVVNoLhykdCkmViSmTkU0IBzqoSdCqcMCjXVFXLZ1p/eJJx?##
?@@psoaanI76c1ntv+R+FV36e+EiWhIq9+9b80XlcvqvIjKCIn3OEESoU6snrvGAV1Ug9nm?##
?@@49aneLJcET3kI4p/WttOiXIdLq0LLxeUo26bOWDbAM/Nqi2fefORNGLjDkfTn3apyUch?##
?@@SKIX95omX+xisx6pDf0Tql9q+nsVIQpRiB9koBQk+xSkOhhiquS/P0yEfkcqiiLqYkbX?##
?@@zRkC4DPpOycESBcNC7mKHHhkCGKGXcdJheXl2R3DrLQ+XtQUZaUAKiN5NFx6mbRHlHBK?##
?@@ygDJ1wm1YodZ22vYmwIn2j02brtAAWJBulAoEKEEUqdvkH9DU3A04SJ9HqEZDnvq5tWU?##
?@@5/nz2u781xDfFcxwUWplCaSgMpZbEo5DiAA8T5zLs2W0U69F0vTk4LpERyEh57DDuWWE?##
?@@7CRSlGERpEb+ureAuvj+dPBAWhSd7pFp2iKe+yZZTT+z6usan6RMwIVCeSMEgr2LCpYD?##
?@@LboUpcC63vTsGYpNedrr+Ief67mDiA8KZ7G/eccKpO/WLZQS8kqGlHAv4H/pZrRZ7kY7?##
?@@hre3XlFtMIFO269go9r6KG3cOUr11pOwkXC/ffZRNg6BXYzoE/O5Nfcl6Xux4BCw35Z2?##
?@@82DY/pSJ0ZiO9wRGsalVif0ftfPf6faXuohRE+y4t83Or+gfM2eIIdAajVziZR3AwzkY?##
?@@mFIPlVS3A4LJGKYkZq8wFzmc6TxkMY8qzBuFyFzyiP+/z9TsEqeo3vfhzv30sLQNkUBv?##
?@@Tc13sR5+AAsJwccUEkFX8xRKAIN0fd4iere/aUCpTVqbqIWVfI5My0SBMU+HNuVdPVGR?##
?@@3qtHv98oUMnCRWODwfyerepLLWgejy8cFDE3qwCa6xRlhQVyv140kkZOe6nAI5RpYgrc?##
?@@zyspkYOB2v1V5M/fNmFqIGANVfcvaSDzVzFayTgi4zqsW/UkDffreKuuf9gAIL1hbmE2?##
?@@ADe5HTvDdLC75VXlFtAEUhUDk3PxOJWEVb/MomwgqKZcbcNUGUvuSOJTDQP4KSMoK3Ut?##
?@@nX1uT+wHFazU6WiMnMJP68XSZXmBf6s2rJtx/+talU71QCQyxEPixDPgjoZLJdQbXGLX?##
?@@lkDo5GnxuOsfai8tEbwPZLzxRFI8VQa2oxaiSGOj+gO1X13r/eodEOV/C1yNFcpHAIAv?##
?@@K6ju9KegnL8lcpNuWRt3MMK74p5T5S/fkkDwdseyFLU/nhjlBeJOxAN+fW5ITUzfnY+B?##
?@@kA120iu/x3euF/Wy0Tlhlwuhh9NHf2viNU3LtzXEJO640QWwa8Lafz5q+/obnUes4EA5?##
?@@eUe/4exu+zTS3RxSID2TY4CBA0TRysXEwI6MHeFaJfcYbGmq6kzfFV2OuROAYRA/DZ2s?##
?@@LsIn/oe39cimLBJbp69qO3NvqyeJEsaaCrmGdfwFpcqbeOj2qmRgLrId847ABt9SXk9X?##
?@@Q3e4PT+W9yfevNwKGeuQJ0+ZdGgS+WjGZ4BbYVUy7aznO68jzMG2jferiB3Xq4PQNr4V?##
?@@2HjVrK2WgrF3b+F50kVcdgP3bB3P0mqz/2jTjArw5Qf2/YZA5uJmGLO0Toabpza04UI/?##
?@@MdxgB8XGfB4yJhsDWm9qjJFK/kW6yjOCAs+QN9QUoixXLlTrcVrZwAus6E/BTz/kPwWs?##
?@@elDSOndu/RElDBaox04xpm2y+9HUHQ8eLHgRppF28sU8C5cPtjaD2uFjv+HQonBY+Mx/?##
?@@P1Rs3JGQntm1fdXsuy3vUFxVD94gqk36dW7y3KqJ3Wjhp8fNSqvl4ZHEu2N+xXNcR6x0?##
?@@wKoKZALxues97/HtXHVwpg46zK1XXNnD9UG5j0H5WqP0wHCUcO1AIakIuvJHHQwIbRRU?##
?@@lTjVjAdLzV4+trTU6wlKvrbMllYbIMRny0MwEgqPcMe9HRa/+UMobG5RWHPTrJRwtiDQ?##
?@@Dq/E8jMkTpGKR7iEk5B1ADIWacu2g7W0Mvx+n0wkAc4uJZ+LWob55f+ApMxrJCYs9fZ7?##
?@@OzIfeto18bB8Q6u8bOmJY0E01j36etnIkylDWbXqfCu8moknO/jUMhXmytLnyhlAJUFU?##
?@@hKaRrSmkacTgNHwpTrq/lecYRckkr2iQ2i9/B3RTQTArRVmmd2gTnSRj4FbzwYhlfo8+?##
?@@0TxPQuacgTN10RchLcO8HrmlyxL64kA4lGyzsiorZwCUEjw15xRsJ3lsIlKGJ7vWPOk5?##
?@@ZqRUUpyWv+kohTY0XGhf3KMGjMtcImKcJkuz4Tc/jSHpHFGP6xF3pIgtnGzlBdaXU0aE?##
?@@C5WL6bQ22I9Z5LuMod+f67FVgtrSHIGfFqHSqskI+dNuPwo186S+a9K5JILT31mYQXKs?##
?@@sCDZ3riohuINyLT3aqi74vu/gutTXreHMKN9u+zlewoT3VO1ESVKyGPMsCqOs2sdDC3R?##
?@@MdxgBzPle7PS/6144QKZbCOee29vCoRnWPc2/leN80WmtQVCjokY556oZyzSsQ8pY++V?##
?@@itkDwPe2WFzJc3e/qu6/pAPdEdPeUs5ITGEDhNhXR6j9d2zaxFoisUDqCV+OacbRGhc3?##
?@@C5WL6ZdwF0oH6OviL3ptwaJow2Oay8/Z7eW2sUj/JD3eZr/Xn04r45ae9xVTjPWW7taI?##
?@@/K2EGolmvllcgTQeXCFVvxQxEDyXjb/nQwDaAF9A9Rl48kmAiKWbahKz56uyI6vpDA/v?##
?@@8U+yTuVDmccbAx94PsHVLMIgOrpV10JCUFYNH2iQEli0WQk5Y1ZrAJPLi/nxDEWCoTx7?##
?@@Co14kOwf4XDW7k/dCJ+s3GFQFonenUyR7f0KpFTCNDveE7ExzWvh2VNY8wUzdHh2QSPC?##
?@@7z6MnTvpWdEVW1Zp50R6ayqdDJ8U1n9/CbLlluUW3rnmy3cYyd59nPa4wrCcTugOnmT1?##
?@@oJanWBCVxW1Vgfni4TX9pxFcojzQpxJLxCgD36uhnO130DGXYoXwSL9UqSddnY44FCqC?##
?@@1V6boz39TFH7T7/NC5GDykSp6Ux+dW8A6O6R2V3kYXe+NFRzWujXlpqXeKpGs/eXh45/?##
?@@ziIWOaS1SvtDVPoDpvFkanDSLWidH6sk2Mhr2Vi3LmeFoNQgjaFQU9OS8C9aar5PtZKO?##
?@@v6H3C/Qooa9trefsUptYGjiLBEBtaTz7Wxx9qyy6xyZll/sRVQCJ88Aq4MwB2W5CTsmW?##
?@@lC/CM+e6oSxrpgqFPlO/SaaEaLjE9zZPTKeIBFGAVZ3jl1O2rUEE8rD2fcs1jN1ULyCq?##
?@@wbIdvOUh8RmLkleBmms9dlOw/o+agc0eMr1xtFtQOC0jOPi1wZsumgtub8SB2pelwaAN?##
?@@EtEQU22QkqpnOhRVbNI17tktN2ly7aqe65PmG54wxfdsm0VbNrLnuWkOq+dARBjJjt0U?##
?@@C5WL6SAPfkfJEt0H8ZbzdoN/SU2yfwBWEEy5e5KrgVp1GWsn0iJK6kJhTvLWe21PBz8O?##
?@@8Eaf9czuS3SYlOep3e+vQIyHRtl6O34RDpuW1DBYda/SWrANMKJJ31k+ouocid8Y5cbV?##
?@@JXV74ocNEgm4i7pnangGdyHhehckoEWf+EpscOznurBspfu/qU4FNL/+EjfrCJUT0s54?##
?@@YoEI8fxL2fVBkJv/OjOepI5tOe3rdGsbr4qi6MUGxZK6ie/c25VlaSxmM4Qm4oqvIK4K?##
?@@H0EJ0OXLJPng0z0sQRSGzDl11i3VbSWRMl4URW8q08XO6uInXbOeXddXg7Fes3EWfqBS?##
?@@vIe+AjzS3D93/WGz7TikP3ONLEKTmYk0xcDBOjCFnOLhPyBCZsO3PT5/ItHQ1CLhWRIT?##
?@@XVaoN5CPHqfBsevragJCSYilSDvqzie5uY8hS4pFmiAyrB9BT/4r6MEwRt3RBtAK2rgp?##
?@@di2G2FKJnjHImrvwa9DrLuhBZ6iVFqTvzHKBEkJYD8zGdq6AmgNGWunSi1mP4cQUD+un?##
?@@m2tInoCczjKf9CsrmIouZJjIjgtGnBgYsmeal5aN7jnyfh16MRcBdWGzX2zRh8QEDQvc?##
?@@JGxoirPB0uRYSF1c4w8eBqGuQdOadIGoIffCH9/4xLBoNDaNPH72MVyCZyKJGPwddxO1?##
?@@HTDiH6bFtApNqsjyvaNzxnwGPU4MGfWis3EHpB1Te94FjOq4gXbV4g5xzRoxiRPLFp19?##
?@@6hMs46F5dxKEkM0fNMUgnLatZlt1aYZChsFFxdg6ToHpXHXO719gnAWzp1XHK3GGdYvw?##
?@@37RaF6kVIUYp2snHJ6qWAkVGfGBKGx/iFyrlvBabj5QH8Kgc/kAGCnwYsje/E02IupH9?##
?@@2HjVrPLMHmtnmFoHVlZ8uvIkPZEkjm7Wfx4izKJLwMGFPeV3YjDkx1F4EpsIRGvAqHhL?##
?@@0TxPQkX+X8MeDtZNU6a1EJGUPM6mnDrEd6c4M/fMdmJpL21NlTu/flzkhjdY9VdXvXAz?##
?@@UvjWa0DRF+GeDY0iTtB9dTb/z0QDiak2ZKJy0eakCKqDeSYqNKsvHS6+qj0tRyWh9H1Y?##
?@@a8+0DJowb0WHcWla9XUESoP2CvwzvpXrj2VWJVfjG8ckd/LBHabDLGC0Lw2tB+XBbfgJ?##
?@@sCDZ3pBwHh45YdVrJGQtl3YMIeWdkJmhX38mKrGpJ+6oJn56l2qF8pLwPEF80n/ViArw?##
?@@QWaSjc0XM2dyew/ovrgzi6Q/vh1DAF+FOCG87rV9S0UoFct0D2US1m8H++vCOuf7dPfh?##
?@@YoEI8SdZ9CKjaCpVsUThkVsAUZeiWLKUcDsH95lUtvKuIMLaKYXYaX2OBQEoerPSB/Nl?##
?@@dzaZMbdDCMXS/f69cSPwFE98TS5kFZXnik/eHPKS3w9wFQFbBZKYN4CPOXsR4JmSX+rt?##
?@@OBjmcVa8oIOzHIV9Gvl96DxvrTe3jM9kKIiw2Ac35VcE7XWyBAReFWNP9YBlpAHs/mmk?##
?@@gYxYpFyp+ixbXJ3tZ09YsffWK8//unjX9dCH5uS5FwhMmucKdZYyYUrwqWeo9NDxoLiu?##
?@@hre3XiTGbQ9vMaBsI+2ouf31jEckM5wLpFL6IkG3ycR5e9UJu4voIe+nln4hK4CnQfRw?##
?@@+6VxwbTFkne4hwG81DV7Go6HbEaQMXV9WiqETD2XsW3YEwzht+qyKZ+ZFlXcIvswkL5/?##
?@@jOoqcIMRVYhZrk5tICCp30Xt15lgHcu1V0uFMZ6ODEMIIRDsOmKJux4FRnsPX+kxuHPP?##
?@@BWIY1lJM7abPVfHfZexMRraT13AJCtd6HiZSvUmVSYEQxHpUjjxPyzX+LAXlEDF77kQC?##
?@@TtWKCdU6G6w/MbK7iL4IoMJPAzVVO6vIgyL8tBfIu9ZYqvn5mUENwry91gmqENa6qkXK?##
?@@q/V5JG2XGCGIQoqUpq5TaJTMAvxDA3L0ZTu1P7ALwhMQl7lTazgjXrVOZVXAneJi8sAZ?##
?@@HCfPx7RH2tprgumwt27me3uxWDXCsfeol6zJTnfBNZskw9JbUSn9arMVzDVBnqb4BMUX?##
?@@vZDRWudbZ55GaO/Fj5btj/62zHSJKqXqEmjNpE2j4gv7hDEzm8O8IT2Xn3FpmaDXPRdf?##
?@@BmorL0bwovxaDvdrB1a3dUmfTJDhmG471Q7N+UOhYEY4ny2RcN9N/6bY1wt8oAp1v08E?##
?@@jwRjeW8ic7gI0G3qnuoqOcVA/db5TniM1BtPm/Bpb0rx9vwhOVx0UO+4E1NpQZXeW9Rs?##
?@@qNtAG7xWDMhn79GzmUWrkXO4XLpE3tgt0021IvsrSnrALPieW3HaizxY+vthYS3mj0ll?##
?@@YXn1mIgXkcQhf0Lx9H2oVqKAfwyq32ZBJiKoEijfVQXvSxDsWvjFMjlonZxaH1e3qM2y?##
?@@hre3Xmae1v6OSotcTo6Ckw+MKL4oi1NZOjztGiCVJtF6xgYPJLkG+kElCiXceN0TWLME?##
?@@m2tInhKz3QMzHIy/Hqbv9lcXAqU84mPhwMbZnqh+O/Tsv63qhB72DujUU54JGsBFycgz?##
?@@5N+60XMh+Ao4G3sG/LdaT0HmHL31GUBuD4d/i9c+gf6KAD9iCo5E/2R3jRK72hat4C3T?##
?@@xdVqHWfWR7UO4Kz5fGdcojFjgXOGGW/KVVGBMKgT6f34FdppzQtEjzOers3i3D5WqOrY?##
?@@9noRB+HNOgT8zQZLHgigs58QwrkAUks4UkBLH4a/RmlmSUAZuq7HMgOZgPGOec7wGn3i?##
?@@UwDpwzBC95tKg58TVmm80TlN0DaPQSAQcGeKfFpHRAvyEL8kddNBiuX3ALhbHxEKl4Z9?##
?@@dBxfJ51a8+CvOpx0HqWq1N5CJXtkrPa87EK/AsUGftzBdrLLuyTlsPjNQIjBwoUeD6if?##
?@@RYje7mykFizVCYu6AVW6tiOXLSfhS6D0+B/o5Bk0L5qVoKM//GB+nSR1FEly9b3apXcL?##
?@@OikMImyJU0vnSar7vX+Utp+WEGC5Y+Cu6dq+oA0Hyl9r+cXY+L02XBb0PlF5W8jyanr2?##
?@@u3+rqpVJNeTYUTx6xyaWW84W8pw6iO9FwFW5gBDeJAkv53Qa9gSzQjx0yQwLYwJcWrdl?##
?@@sCDZ3no6tlY/oail32vo7cXWAeirC7LdRqkTlrC3fgcUvXe0W4qPRps+o9qCAA3Bal7I?##
?@@+ZRLEZQQ4BGdi9yO+a1PIMHzHJTdglfWscbsPQqEHUE+h4yDGPsghRi9Z0juyw7OByKq?##
?@@Xl+7jxEeLPQvPzAdWzYa7Paw39jL1EygX4G4yhlwPEg3QYNC/mFU481I04duVWEfEIen?##
?@@l0n8POS/zPVkDJLWhsk/d5BPO/nGOf+qfJs4feiZ2P5Nd8+mqf6VrHPV6B5LAj5xzTJ0?##
?@@uGVyoZJfVPT/Ym3lR/NeZd4D5Nx8gITDvNmXZHY0z0gfBuR2amWKd/1wt3hWo7jE1pIM?##
?@@ha6kBtM1+5SP/aTe7iU55i2c21zm/3nVqik9omBZZSLRJl06bmqG02wy+yXW0hTKQePs?##
?@@IltC2YCfyAmpyqKR3a0vqINEJVHrDIm8UZJpZh0dEH0GODGr1V57WFab2ZtKOW7lSslc?##
?@@A1DyJiECNcozaHA75vIEn9ELDDlnWp9kGuq0pbgL4PNo+tFJY7n+ouD3Jg+lNGKusj9T?##
?@@9GnrV/NOpzK1w48axkiC+dAPkLjfxHvb66ZOCU7Y9OObfzukE++cxtDCwZ83Y4p3k+h+?##
?@@eUe/4Y9eQnqOeRWKDVzxqMZVl0ZrEBpAQJYCNt6VriyhWJY2MURGJldfymx1yrUtIGD/?##
?@@OikMIgT4BRNAGjgPkUBE4SprcHEvXRgIiiP9E7x1r2KBgz4Z0EEAeED3esuL6Tg6qq2T?##
?@@NxDTGecPOt0lOHzvz03s5jKDKLTHOiaMHjN5i7PkMa7WCB3Ca4X0oSU7mOQWMgf9+mC/?##
?@@xMxXxV/iweiPK8o6yA6MyPpsVDuLeo8ttIV0Edn4ZuUP7ZuMEuzXhAXIxioWnrgRjUJi?##
?@@ha6kBsR2IpZWY894b67VjoF/wGerck0wP7yL/9QI+W1vT6+yjnaerTsEo6hcuvUPxi3J?##
?@@rg+zLev+q3hAjfzwFaN6mk0e97Ie9+75KBixIq2GHNXxDDEJFpK8Qt8MUDyIVxzrSwgq?##
?@@x+aQzgSujXsJU4btJ6XpliKMX8Ksctr/RCELO67mhDuLAA+lgQRJzH6+NjD93zDb3A2d?##
?@@qNtAG9drVkWMAhzsyrPBziGvVdVTR4QDUiA4BEENV+Z4ICfcdd/AsH8RlQ6y+U7LDl4p?##
?@@gYxYpJdc5yRA7Ka+sJMcMA52eUFvow3WBtp2DPskRAdWKLCzWsG9A4jUxS6Zxd2eAZXF?##
?@@quxmy+pbBFxOSUN59MPcBbyy4wjSKexx4gqH7Dou6us/t3UVZfxkQE5Sb3F++rYidHHf?##
?@@L8s6VmN19uoBQIYnb+hUubuOOFaE0iJ0/fb/39d1vuTfUWtmCOmPgVDxhQtgrl8vOjzQ?##
?@@2HjVrPT3GvXPbxdrDsI74sxrykOWoSz0mdD82JgGkoQdJu9r+DQtxh5iwJxSXcUgWpye?##
?@@MdxgB1GDHgyy5CsxQu0HA1ozICca6+ZA174ONgcZnsoPcZtp85Rztpw2WIt+ea73IfcL?##
?@@3qtHv7tJoX+wPfqhe0I9gvQ1GyBjA7VnH4JftQJbad9osaYJibhi7gujtvGYQiXbjStL?##
?@@dzaZMTGDsF67J/Fv7SwXZepLJxW/K+3okV/C/SE7wDvx4ixiaoTI70q/UuiaZdu4/zgU?##
?@@hKaRreg3RvPJNjN6ZFkYmf+hSxDXGp6OYdiylmmQlzYFJvN/1lVt69+m0GmZYwNEJi0R?##
?@@3aM0ZrPXiEGqBZHjBUbdGIxENVVrp8Br4FwBD6CuwdUHsXwvczENwvS7OU5p4Qv/huDy?##
?@@hre3XvMDhpDlopQmjX6yCSjqaEVnTkTjKuWHmBa0PSoKmJ7rp0myxlAAuDpey8ZX878U?##
?@@ywjcMKfRRluhuimaEt84fqpv5c5g8dBlaU2rjqmyoCJCBzySC0kQ+6Ha1PXwEvpI6HEy?##
?@@jOoqcDz0jnRg1HC6Kba9ePO6nogD8TmILCsttdWWMVM93RivmBRlNmR1kRTfQFPLSq9t?##
?@@LboUpSQIu2MJEMfloJy+JEwU3VoIevb5LMcNyOY3i4PT1hUkgyw1dkLj+bNi38XnzaVf?##
?@@ygDJ1+oBphcQ3piom8x7af+u+z4gj+S84sijrSg8m1IWbxx4oGnHHDhQIrbhy/KxZAQv?##
?@@dzaZMd3eJfDQjaU6nQHPsCWuAlskqOXK2mqxyk35dH1W/OsWkMCPnZYFIbRBG/Va6lsS?##
?@@lC/CM7OZF7hoLzwJu8mpX4J2AQpsSAj9ovBXAaDj6tGSOszxO+bmrBvWlBrkjcxh+YnK?##
?@@RYje7ry7olsOTZ+7j4q1ADFQme3b3aHbEVjCE+q+oc/rlfrcd2Iuu6xtB0DrcLtMJv/q?##
?@@YoEI8Tc6ePoj0xXBjDrDTA+7ugJzIPWdZueQhQof3mG6GX1ruQUqxJqMrp5DJqblQKMW?##
?@@Gx+8b4KNbP9jyrVbfrb67Niu6r370KvX2rEOGugnafKjGUgZ53R4ppCS2Zmt/rEyR9pN?##
?@@yO6jJnZYz2qk7F2IkOw9tqd08MMpq5WP5dYr/VvWvgwSaR981n+Ho4GHvK1D3i5PBhGC?##
?@@2YHoBRxFLL3CiQmRRmk6MjBdL2MYP/7WH90e8L3LG6Wj6kEwXZqW164KEWSzbyg/OMaj?##
?@@6hMs44Lbe2fMLBmg8AF50VJ3JAaM4h0oyfaggJKeeHhSqdfNG2MTVE8TpKNJ3R6jS5I1?##
?@@F/xwDV9DGTtRt+3BnAdeT3DC6l8XoB1FuACIsgpqvw4i6bvVQiCiqUnKnxE81iylSGA9?##
?@@PDsy0w6wlqx+9WgE1xecNSlOhyF4icuFDDHV4iQEITSyVHhHryx/MMbUNOb+btdFax1y?##
?@@jfM9yYzNNvzbxE+VTJ3XJu1JcirtLjYTKU6BmYUtX42Zp/AHT4jjwbgpDH5QKswho5lW?##
?@@WjxvLgdHq4Ij8t+q3Un3hBf/HIX//i1p5qLqAifqnl5FSUahxdeT4ppR98ro77Y3Pzr6?##
?@@T96dYoeEG+Xs3sc8Rn6H1zjRHpsNbZ559oXBcsAXcEcEJ5Opf/vPfQ/tUx5jSEpv5KCE?##
?@@ZJIuomyl4Mj0pZFE4YdV3GYMDVLskmhoR1uNdkxW1kXvsPG4iYnugrpXHWJ807javrQl?##
?@@8U+yTmpOAXSmOaPkce53c3VZ8pjh7bRZ65HeiFO9ovkWAJbFxxGkJoen7EdemL0f98ul?##
?@@AkjfzTnp29wyA+55foxmpW3DMxox7lD+JEdOFxKc+s+BoGUYcTlzE9PMeIfTq7Y0T1IU?##
?@@l0n8PB8Iwv5LEM/B3aD2gL3yHfjBDAhxN8Sq2S+O7ElhAxDBeS/0ZlzycXVZSCgD0gqy?##
?@@aLV6A1DZc/jYFZjlDuqYoLtF6GLlzTlEWqKxb5GZRoQV7Fh06mwPVgm8HEEGOD70l8aQ?##
?@@tUs4lzMNeXK4Ph1HSyWYysdYepC57xnGXtGYSC02BZhklUJsa5Bs7tQot4R8XUikuF20?##
?@@TtWKCT9XEzQiRunKklSaYOeM8ndTBR10IIsdjMbZmEhyp2TFQBWtFfiRdUzI1CnDLenY?##
?@@5/nz2qtKGcbpD88ZJBBTDtPe2VnLfQZWp1T6uZg1LcyaMSE9Irxo5LJRz5QOsmOzbQhG?##
?@@LLEBTWdbrKRoAr6Rgas216584OOzjqP5K3MeO7VSHwDJFcZAo5L/Qio8roUTlekKYPEx?##
?@@sSnsNg3/NbpmI9zDgzGBLN+OjsSOwArYnLOz9PF0JTeOlJq6zYM+2xd0Y4NiWyueCoa9?##
?@@MuVzX/STaeF3/rs1Mbo0e2z9SuPce3Bl5wTy4lzNRHmv4/yC8wiwDKt6FrVncnggQlpT?##
?@@VyM2JTq3X3WReXA8Ebm23Sg9LaLbGjQKDNiOFr+d3BmVYR241PtvCJhhaKF/xMgI1t6T?##
?@@IEocKFc8Fxne/xlo9sKjW33Kif51PlgQ5In4jABw/saIUZ6Yj6HtNNaWp/qR27db6Bg/?##
?@@DaaxmeJ/s110nm3WnlzQ2Jn2k2IybT7jluD15/gR8V4Cmr/WExVsi9ik5XjW4OFTo7iY?##
?@@MuVzXxCA842e5XJqdz8dhNfmaeZdEL+LHcTsWBtny9bc+oCa7ncXfWWc16AF7VGT8Vdv?##
?@@i+IWGOFKR8SSGZGuqJutmBasTO83tz4shG7eIFpCgByra65b7hRMtTLaB66dvo5Q7aHW?##
?@@oJanWPkoznnulyp3zFNhLoYKB8KHQwk8GOrfDc7fRzrXKwFEXqZjPjdSWBEisKSRdhIF?##
?@@SaoqUK4pGunuhSw9uCnkioFKQlkhXz9wQuc5cpZC8B6aL24GgropASwrg/xdfDwTo+Sm?##
?@@7jV5RLfP4E7FXjHYHN7A9BSfcK5lIMSFbn5UU6j2Ms3ytb/xevGjN1tj7WzuszDrfKcn?##
?@@E9ojrC/bM3VR8mbwqDLrXrMvAyFlXC2IJ7XFI524L6MhIzb6LdkVInG8idLD2D2AqTAq?##
?@@YHDiQN0k5GG8zmsJ0A24wDEFSXoVbe0ByhsmVnyuefHDjebK7k65I8AXy9Ne4f5T2UjC?##
?@@1V6bo+I4rQ8L8ZzqJ1dnvmA6rvKzfGIUk+kmuqXRbxfXTExNMvYbCUR0dCs8HbkXDvYM?##
?@@jvxQIXPt3Ih2MJwmk9xZ8bHduAcThXWgH5JlwCp331iOxd8OG6zCh3vVWRQ7rOtTAjtS?##
?@@n46U/w+govP7UuVP0MUAqGwbc4lB81nTIDOvhRPxesRp/s8HbzR4qli4p7Dt83w+JM0L?##
?@@aLV6A+wT7bG3sxLuHMCDLiRfVj4BYNL1zZRHDtAA5cgFo9FVAhwQJLER+cNpdL42bBRD?##
?@@cQImHn/ZL2u73/kxghL5PV+TYmcIm3TVx/Bu7sPM9YwRR+V3wEWLbuh5anNS0mvSJ6cH?##
?@@LsIn/r1ZiEqk/yTKDgi/KaY3NeI/QI2GYqLo1lFr5KxBaZk6LP1Cfy40zyhPpDHkZZxu?##
?@@a8+0DMNIfC+IyyD4tsCiQIACUdci7+bKo07QTKN8RrAj8MwPeYOrgUnzFvw9QayNHl14?##
?@@SKIX96jQFJU55R8tLJTSe7nKEOEUjvArYZggOf0ypd9XPOu9mwr82a8VEVl13/5wTlO0?##
?@@beDavcd1adExP6cnlb9ln37IoniCBdRzjW/eTPTnPyv4u/OWYF4/u1KqmT0kYdBLajZl?##
?@@oqjOCOOkJWvSPpJO/krl0FdDg3ySddbute4bnpjtF5NVL8BPLdlJVlm+skKboDEJnmoy?##
?@@12/BVKGKB0qD/14ZEiQBPZ95E3y4Wa77DDBb9xt/GC3UZ1pRhuWZQl1uVU9RHvpqXpfy?##
?@@TMRkWSd89bqnFUF20JnyLHscBpR6+X+QklO6vnJrvibazoT1fONQfHCw2EzoSbB5VlCr?##
?@@Nf6taFfKtpWtCehDSyd31txYjSVb+gE0GoUpKT0WCYrMLkZgYUdFnS/OJNeb5Tf8I72m?##
?@@RpDxRifQWHawA/ioHMk8sxYAQohGpATmoWS6ly1mCddjHdvZV/YECTli9KGUBi+oSPQh?##
?@@x+aQzk9vBWy8AxCQCTwzVORusFKz3o8Yqby97AnvZW1h9WwctUapICibjFCVif8CpHS4?##
?@@sCDZ3mRFd5M3S2z83nM6rMxLSVas1VEKNLAnNjOP2brvZdCD9MUD7q5GHc2m6RIGHeKP?##
?@@WTRc1UDStIaHlgeLSXg6eSXeIT2o+EkZ4OysMwxk+DR4ciMvScYqcEoYt6YcdED9JF7R?##
?@@ziIWOYWtGlvIopcVUfuRRxj81lny0V4q3Bki+zUKUmMbm6rLiMLY6Yp9vQ1fqPPz2NZI?##
?@@D7jXSlruDDNMmuSfkyS3LT+ySieOZoEqRK1K470G6k9Hm1HbZHCXYbcWSB83pc1a8wPh?##
?@@OBjmcUoygYF4nhAsQGx89/iq38H2HD1W0lVwd6iK5P9WMSKyzuP2CQRq1vrj3hrOy+Lm?##
?@@wbIdvBHKgb5qy1e+NDeE66A/WvJmymxHLNSzJGrPquoFSq6B/UDvykVBvNKrGZ/7FNXK?##
?@@Qm6l5bvwBSjd4UbajLu4wj0/0WzhLfSyZArgDhrF/ot1FRG3bu3h7O1bHuO6xGxZI2i9?##
?@@C5WL6YJVx9MseU7NT9xBAqcm9bb0O+wJV6PD/QrxPQyLRka6oHi/vNUxMRfKcPdij8re?##
?@@yO6jJkbJHQjWeZtNn7S0ngmdcViENtl6lG5Y7UiUo3QROlEEjEmXb5UJpSOR6spGZEBF?##
?@@Daaxmfh1QN3ZYZtS5RAOK7+TkT3b6CSw3ykh6tqY7hA9aRk1U0LLcRKuvFTya2weLZwN?##
?@@lkDo5GAkWDltDISNlH9tcKtpZr4eCIntnDNefm1Udl65wpGqWoWcgrWolfOYArYIx6Gp?##
?@@C5WL6WQS3QHdm1vj+G9phk0n3RkMuCRxy58w6oz+fkTsLylGrJ7TfmpDa/37fELKWAtp?##
?@@0DM86SH20KA4S/5n7JoItcH4AJKWeRzF5kf+QRaT8pjMTx1Qz/YcrySUT6cm7O3ijnsQ?##
?@@nX1uTxXkJpstT3mKofSrDCSApRT79taWwFJgLdAI3zrvntCEIeDj0THsG+ob/SxMlra4?##
?@@TtWKCbcQ1I1fqRMaMyYUSiAAuaaQfyo3IYxCq9NRDNMJ1YQSFqBjuHHEgIqCWClbPT09?##
?@@e1jlkjEeXt1044x1U3MpfEUt9AhEDXm/RPh7o2+zY5EkDnJKQRJ0Gujtq9KLv/c6dB3O?##
?@@rP6MfLi2hPM5RXsq6hhiHEpAwsjQSWXUCbq2GBQmRuzaI0szLcPEXJC24d2JEavo55Dm?##
?@@uW2F+YAwaoelSR85oFS7UBHEmSu+FCEmLkq4mI7Y3TPde9aFf+fGMd6+TzBy1w53zjeJ?##
?@@Co14kMbTvRdFrGTnr0OyxgY2rijw5mYLRbwHzeD+fLhRLX2RHL4UeTVISbl7keYuaw8w?##
?@@h7/Kto+Q1pgdC+4hWXPicy45IaU/kB90goFoSZ/LJ8bFynM5fK9PJJN8YmecxORfHKlg?##
?@@EMDqohDQ1eGLc4NyUcwNkhlp2nkRo1hB98j8O0ynBmV5XXnvdy7It7Ako6vWwHiuRunL?##
?@@beDavZuJWv88fDavG84lEhChyDzfbBnS+WZ00n8GFn43pQv0pKdlO0TeH76G6807CLlr?##
?@@8lfFptptr2gCPWy44bwyjOdgAFKQ1rM/TBv2iUAtOmpF+QTfurMYqesybN/jh3A5Gqez?##
?@@37RaF98zypYswKBJ5jVdDmV8DIXMqEpeNxjIcufk7O2uTKqiF5a2XeZ8lTQh5zdWDFWP?##
?@@aLV6A6WmeymdNsYnv8xPmLrWoaqahBHhD+1DbmashQGV54l+JciLAq8iCuWz5vc1NWZT?##
?@@eUe/4b/JT9mXxHT/rMoQNWRyr2vNmWDwGjodih33VggYKBX4oH9JMWEg2BPX2kofH3Za?##
?@@hre3XgNMNJvAk6rsap2g1aBn+nNbL/oNTKSAVhLihWnRgjlnIZ923l4zEADmssJlKBfc?##
?@@W0WChsBR9BZnyBDLvN1GCs4FaDWgGyhrrPMUfz/om6Fbf2cZOEFhKG0ScHC/hwK82dyU?##
?@@fGH46iwk9+wWwOa98JokwcMUbzhJEzB0cWbk+GixFmXozCcS+Am/QlP9ObwiD+jvehp8?##
?@@LboUpR0Y0ZQMIeMYGlVduZSFjCaHjUumbs9LMmGI+LBPwoTf3L5kbakg3YQztNQ/WIbK?##
?@@NgfAwWKAh5bQQZdYYYQWi1mWncCHP5TtnMiZPWELAqiRz3kbUaHqke41aYzGyWodMA4p?##
?@@h7/KtkYNrjp9nj9eDREI7PErrZ0sQ5AWuKkfEsW227iDCAHGSC6LgV+s57g/ftdTIQrU?##
?@@YHDiQL/NS4ksKci04jSMLt6yKvc8Zm6At0/hN6sGltum9iINVVfOHp+0WLidPW7L0nqI?##
?@@WTRc1SToy5uKIIJR5L3Vow6MRF0XoC6v8zH22B8vQYw3+riKUV6sGeX7eJ4S3gr1mOu7?##
?@@Xl+7j6Y0rT78ha9Lb8EW/OSJcoMsSABapF3x1FuK/Ps+wmI8j8PTp9nu0UhAhAlsLTo8?##
?@@f3sx89dBp6f3+ipfEMrmnT9nv6B8jnDK8fwoYz3kOHZ/9BATiEmDBgk7o/x69gGnVHNm?##
?@@7CRSlAsd0eXKOhb+gltAxgD6khgLNFkvld+jiTt/6V3oIOstxvUJwdtSH1ZXK1oq94Xp?##
?@@xdVqHRMtV917jhTGE9zpV2u0GjlD7TTKtbWq+G7Ogn2jW+eBiQr8A3IUMDKKWVcVcnBF?##
?@@sjH/jkK2jibcmHkyH//t+uSrfcneAQKhGHlmWp6afJEwbWlpmIVO/30v2foJZxl+TKt0?##
?@@szoS5w0U0Ea2dpqagj2V+aGn0MxGP4QQjidxMMJ0cn3wrHlD8M3yB+B3zLkLaDD2wyMg?##
?@@5N+60ddNIB4pH0A25FqjEXnQw0NknFXNrDBj0qALrjs0qk41vuZfrgg+zxzZ+/J8xp5Q?##