* D:\OneDrive - Australian National University\Shared Documents - ENGN8170 Portable EL device\Repository Documents\Documents\Electrical software\hv9910c schematics.wxsch
.print  ALL
.options PSP_NPT=10001 POP_ITRMAX=20 POP_OUTPUT_CYCLES=5 SNAPSHOT_INTVL=0 SNAPSHOT_NPT=11
+ MIN_AVG_TOPOLOGY_DUR=1a AVG_TOPOLOGY_DUR_MEASUREMENT_WINDOW=128
.tran 10m 0
X$C1 6 0 ELEC_CAP_L45$1
C2 9 0 1n
C3 6 8 10u
X$D1 7 6 DIODE_SPICE_V3$2
X$D2 6 8 DIODE_SPICE_SERIES_V3$3
L1 7 8 1u
X$Q1 7 11 12 PWR_NMOS_SPICE_V3$4
R1 0 10 1K
R2 0 12 25m
X$U1 6 9 10 9 11 9 12 0 HV9910C
V1 6 0 52
?@@--START ENCRYPTION: "HV9910C"
?@@qeQ6cFJ7U2NVDPHfnrnkYVBMbP6ZEc+umhQYwhllYIuDWOANRLCavJbGWywquwpfdMv/?##
?@@Qm6M4R5GKDpfWkUc8Ddd9p9tvXTs8ta9at9tktpU1VIulc+Wauok7jxyvGAba++2l4Pf?##
?@@OzIAePrx0Q3XtabgWwh2P0Qj3rIwYjIgy0JaBqt1rAkNVvO6ngQXH9W8cAFELB9H7cth?##
?@@SKIX9yjO9PCC1xrxKYkOn1im9M9QHcsVOc7a7fjm3MYI0mfSiQcdavOgJENHdFyrnTLS?##
?@@sSnsNiwg5w+wxozQylue2DRMcxk2NqIKR256vgRqpZRuwT3IYgc9nw0TrvLuUGIpHsII?##
?@@bujtFUXfc0guMESmg/vTtHN5T59B7VsKmgpTxbAWpeUQQT4v19S1CItYvrbJScXnj2dj?##
?@@OzIfesiDFke74m1bvKVtYi+PZGhqXhknHElxuuSd4ZNjzHQjWqqsYcNJtZaB0PALPotz?##
?@@wKoKZMRtii8takOWboUQGbPys9O12zktA/ASutasL4UfVCLBrishhI9K5DEVadPVGVNY?##
?@@YXn1mJZGh6YpbBKb17JKqIDfmip10C758PwzjEquwG35DHioYJBZY2OFR+6XXMc0Kdxw?##
?@@Dq/E8iQLrZ/0uuSFVVMUoOVHMweCmSR7mObcojoii0Kp+2HSPuWGqWNWXOpg32Fc1/mR?##
?@@zyspkSeqmwctaNBTk8YyD/Tn/LZSKBRoNh6Q/2AW5FhMahG21kDnkwUtvR5sB65mx7cN?##
?@@dBxfJztnsQmktxNoEVC3Y91CWBvysghoPwOE/Id8l0yJ9lD2g3k+OqMCi22Hf+WQ4Arq?##
?@@6QoZizflvv1BZLz3rQhXQNiiQZ9iu8DHe3P7LnIBtesckBjq/GBeUV4Nz7ECjuljiFCc?##
?@@oqjOCJRNLG9KqTQXdeT5+P/44Q2B8ijqBWW6/80zCzwNgyTYPWuUf02pHa5lp1Jx2CPA?##
?@@zyspkcbYJQlmUoGSvSDSnmtYzF7b6moCrpJppsRgpQqVvl2jMuW+Jsl2JuhC8G+9yYtm?##
?@@LLEBTXsACbGKdosrdUJt+4DUoLouLeZdoFR1yJYl5HjVtFh2LdYHpVYbdrDb16iWt3xp?##
?@@xdVqHfvp7SDEWp5zgsgDfRBXvk/6VtMs6ZFaa91Q9iuzDWSYW+h3njf9TeB++wCK9+7b?##
?@@/r+qyh1XB4dW04b7WtUCsw0kOIsNTjO26namFqiFuqtlVlBcVZUMKgTITxJiHUND1CUN?##
?@@x+aQzob8uAuqONhLvxAE5EeZdIGLkKvYeTcschZkv54hM2cRBb7toAR73DXg8K6lyOZL?##
?@@YHDiQP1pU7R1l/i/T6r3dddUFe7O+hlz/XoEVPwLG0aQwLcdLkMBU65WQKqDrvn4tJPe?##
?@@YXn1mDLh7YJAEzYkLggRsyJcmWrSKQ7hOBNwtFdobb0XlT713E3rUQbUPR1xwb/pbbzs?##
?@@tlRL8DiS6HW8RNj0GnH9EeBCFAuuOtVasNzPEbgwmliiSqDJZTbbUicDVZALHskqnlrn?##
?@@b/EAbt4lF7ZynVdw85XmC8BORzaY8hkFCmcuh+e/ryhNIepAf85BIDsf1RZN/gWwcs4j?##
?@@IEocKGt3az0Ti2v7JCp3agChmcqe1hmgi6+qx8QgynYvirVmaeFOnm4erQkcIAbz9R0z?##
?@@ha6kBkb0OruyIPfDiz6IXh6WpCViQfimzwFcZPyyn2z80vzaaK6I9AUR4iaO9A/7c94A?##
?@@RpDxRhYC/m7hQ65c1NSW+u6vf7r2A2GRpGZI0PIcdRzFjgG9RU1A+JzWqtaO56Og3e0u?##
?@@Y4obSWZfaUbTorHi/VBxiN9DvWGVRL0BAmyMVrTsjtG+n2ikbp6jk2VJ2gz/42WGHdxc?##
?@@+Is3uDZlsns5Yt65R+KO40TvZQNCl7/Do4lZJjkKNgIgVcFGI+iH4xdkc2Pw2Et2iLsw?##
?@@4cWAyBnQxFuV5l8gBIdIy1HoN9YkAPvPcaOVhHcj6jIdjO0Jnt37qpFI7W5UM3j9/IWF?##
?@@UvjWaxzxh/NBvvdcwt1QLtrC+pF7tIqkxAkdhZB/26PevpqPIqfuUC0+JZjdzKlV/fWW?##
?@@NxDTGYzd0Y9CDhjLLbxRyQEfw4Abbp64ZvKAb/bbe5Lt/Zu82X7P77Q7nOscF0cGnBVV?##
?@@aLV6A3Z3C+8uJKjjk6WYRmSw06o0g8QLHtWGG4RIa2dssZyWFGCfDy+tudcWmdNuFXkM?##
?@@Tc13sX81k0i/XT6HHM+W+IBAyCa4GGy2F1pEA0jJj/+d9pdScDBt3ZV3pq5rWmr6lVJ5?##
?@@asagtFbXSXkSYfnw739uHdgocKya2UFOSbgkxCi1f8Kz4wQHIJssnFP+1AUyD5nrrvZU?##
?@@Z6xnqw2idko5RHMFma6Gr/wMxyqdZ/ZBBpbusdBHaCVFQDHm6Kt2RgzzesOwqaRtrMv9?##
?@@RH/LlknHedo/mBA6JWHj+b55JRCoU/F7UicQo4mA3GQGGvOq+QctrbGPuuzfAbijv149?##
?@@VREQdFX1kPndEjXe07zd9pWLkt1vF0FI11S5GXltvcF4qTwMmIRt1SfkbzIq/JJSZ6CW?##
?@@PkxYgzcU5WW8SmLT6PXOG5ZZTnLiiOnwf8IkqCjdtpe3HdpR+8qlF54+jB102Wcts2sM?##
?@@M+2Gt4Xyhj2R1z+BIrrFQBsHIMpqcNw+uAmGVQs6Ay2un3uBNpZJA/WMT1MaT3iNxXsa?##
?@@IEocKIu8Df4E7pUH6ZNw2NbumA0HI9mm91Fh1ux0WK6/1Jdz4GP8N3SBRnFEaGosuEP3?##
?@@eUe/4aY6v4LcR2BRhSVX1Ji+sRVvMzgsHhjJ+2Na3XArRLDj+HwxeR5zH5xBE2p8T5SL?##
?@@psoaau3M0a7wSx8gfIdE5fNWvKQ+4/PaY+sLdyfZ7Y9rqcpE6wlYp9v4IRZwQZ7embmt?##
?@@jwRjebEuaGHRLLGYe1KoML7bQwcjsMzpX9iInNkWC4/WbqaFikkZxqYEGADNI3xGB12v?##
?@@eD6siWQFIk+2o1lpwpYlmz6m9o7uQc1qIb0KtgX3MxLK3LdFoieYM18Qk08/Bv0xNI1K?##
?@@xdVqHcPa60ddiVREpWfjcbiielIz3oGA5+K+kntviYEoJFN656CJncu4Dm2JCXbA25BO?##
?@@ygDJ1zX9BwIxkPlqJqrS1XkMshO4BVPWetSipiWE50rvT89NGPCTo9UERPdBCyKqxEa3?##
?@@x+aQzsoyWAGd4xJKyV/7HxJeUOOzmOj83DMCMa05/E/ed8n+dpeO7kTRQ+Q1yQN4q5AG?##
?@@VAn8HCH7jFK7BnX0iin8r68UWywh6iNv9mU3UXDceIhHnpBy5liDbUfosLxWN0Q5vNsg?##
?@@+ZRLER+87COjMiIH9Pe2Agl9RRvqABiFPopBtx9mhoASiqOx86TqdK5nvHu9xCsJzalj?##
?@@KqDbnIuRSHcmKax9kAw2UzcRBAuyKkTD2toiqtFHEPjIXHvT9lxtRsSq3EI5Ay+s2X4E?##
?@@F/xwDS8NfJRhxO7LWfKRVigawPlLJyMEhcdBk6lSRIBcPYg7P8/TewYmKBfE8lY9Klug?##
?@@4L1tb9FK4L0fpFQHzgB9yQP4qJXlp1GxJBOzSdFRpwHVDXuTR4oCd8JHT9kCBNDTFEPr?##
?@@yfe2f2SyH+aFezCWhfsY+wGygCR1EQ6iKhEZh7cHI6FENrCPhGaqBW6HxP/iGBQOgygo?##
?@@NgfAwTLY6hHAqqGquNCcn7VgahZdgpJQHVjx1UYwQ30AZY8gwliT9m1YZAjN/pGtumfD?##
?@@Q3e4PVGVcslpVzXZIwRi6rVTUKfAef+Y2DaxW93ar0Zt7bbBMmh6+lDM1hJ9aJNXDSCc?##
?@@aLV6A2Kw+z7l4oC8kXlwtXzZ5XTeM9epqYp2EObt55+G9l5htiCwvMdhiyOPFXFCuTVJ?##
?@@PUNFK4hV8Ga1ZS7g7o00vepeyjiB3JVAbsE4jwSv7RHpY4ro0PtuYJ+sqUWAmiYkZJf5?##
?@@rg+zLX4opkXrYW5JsmwQrj8Ydx9dm0EMYYIzVJvq9Xwd9dF1N+/hB7EJOjxoIFHg7ylg?##
?@@L8s6VklLOaSSQSgyVTIAPePePzksj+4CPJ0FlYg7tR747KjGnOJRoCKXF+FLutMLdq4p?##
?@@jOoqcKQPtpS/ZiAMTCFobND+WhKGnQPMtBMWd+8jVMWyFE6n//4tkZ9EXSu3ZwksVndV?##
?@@5ejNKRSkq58K6FMXWC/0NgKc7Xth5H94ain/UxP1wYwZbrOhXbfFFPXIw+J8+bmiqE41?##
?@@4s6TICN5YTJyxpi06mwddWyZ1RR5PdP52/4rdwxWVfnWk6x87bD8V3c/reaWtYF8yBaw?##
?@@5/nz2s8rFruW7XA9kIPCz92FauXQ86XXkBZmDhJwoD69A/kz3YdLq/wM0mKjbxZMrA16?##
?@@rP6MfEgAHoZLpw1n6OY9xdAxTsG6czm4GFxFJC3mrCpB5PePrcONZKBe5Ge34vGWo/Zm?##
?@@qeRTcyGY0yMUg4EqakHsNw582LWUmYhLMYktd1vFXnpiRb7lxYZKiHoV0lP2/4SkxRFn?##
?@@PkxYg94l4nr1F7gWlbpaGuSmgYrHAz3UT5Ix7Iic0iWuKpL9l3Klc5AG5DGKY4grBJt2?##
?@@jwRjeSNFHYjkegep2Oh8YjKa2G63cTj2mQGnI3dTSuYbj+MxIUx24LVC3ZW7PCZ4k4kH?##
?@@EMDqoulLnHGr7ZD4NYRHwzlZcZBW9vTV2h7S9jt2OLMvlr43nWGYw2mWvZyVWCm1K9SW?##
?@@jfM9yVphdesqRmKS+vn6ahEdzSbmliAoDUqUrHbhsL9fhPoErVBmzIfa9bkbk5gTOb3r?##
?@@7jV5RAu4l5wh2faFzbe54dVq6BrGNMuZZTRDro1hssUtXIN5tH+gZ3n4xjvg1xmq4rkt?##
?@@E9ojrEhiY9bXsONJd3ZsWRC1vEPhwynn7HfSHQeNHQGFVnwxqY52FBYgx4v4nsZlwtIS?##
?@@xMxXxaJ/4gzSSDuXa4cAK74pHuqcZR3jmO1mOYkqVLyzQunXHVHzPIW6W788vN3lhIRF?##
?@@VREQdON18M2wXhvYsutpStCZW/fnac0c2J38Evp+tVtezT8SBBA9zplzSPviUB1Wo9p/?##
?@@PkxYg8hxs/YOCd1gi/xfPo+t+UNnw0Y9/DULt/BuBv63Gj8b7eb2Sscs917vmyUGshol?##
?@@Q3e4PVHp9zPkfQDHh4jnSKKr6SJu0HVoga2BvYUMqqMb78risOx9+Umpg7cAm2lnBvwz?##
?@@JGxoinbAfgOku0hnQYN+yidxWujPALwmQbTDvssWVRUc7BjH145f5LwZAO+/QylWAy8l?##
?@@uW2F+YjaoUQOFTH2ZvAPxaLyF1y/DNYAzzK/6/DqgaICRq2Y6FBCJMB2ado4AifEdKXL?##
?@@MuVzX18S3KKwKwjjKiT+GadzDzCmn5puYtL0cbXnqgTSylYkHfUWzL86C9NDRFH4ZVrs?##
?@@5/nz2io5gdzisv2eiec+RkDxA8R/QHReNPrYFSe9rL+rWeJncqd2oM9pwjeMnl01TRSf?##
?@@SKIX90NtIBd9f5lzaFpfIatNr4ZD7pMGkddSCGpL3sBYCmp+s7DFtLWihylhaxmsB0fL?##
?@@VREQdMr2YOZHqobpvNdEkr3Iruv2UaG8QR788t2iO5zpG2O8aY5d4aA0nXMLXem2+OV1?##
?@@YoEI8Yqwt97QvYFXN4DWBeGJLmUlyqvZn4uEBD2AGCWePvmOU0mhMj0eWzD0KHtLGfMZ?##
?@@E9ojrJVUQjGNOSg9rhY5RJb+mxxJ+COR/HTQ9+cBpdLa5SA8yCAoORt92TJF98fzDb/I?##
?@@OBjmcdBvm5W9dempEop4oYDAMdjb+A2nzx5hnyX/QskE8x7W4DwNPmCB+4b9oCQP+Z21?##
?@@vZDRWsvd9l2+wRXVeJfwtDiUsebSr6XdY2TB2OxnbK9wvHZLyQWfVaQHPBTuOyCubuM5?##
?@@elDSOmWd8oDs+/sgipxhtHYmrZ98l7CZ7iA1pF1sGikR6fi2axWz+3Qz0yJZU8j5V35O?##
?@@OzIfep96F8q9tCNsz0wOMQBBgRLi/jzlaXKWbD+kh7Zwm0A5lCS4KQwZ9HfVUASHWAl9?##
?@@IEocKHKab4vzMEzogPoYLP+eUxO1ZLHa8As7CISNBcCfKAbmtb4zy6+7f6CSLb6wqVyV?##
?@@beDavd7/2ws/51buu0SsxjhUuzMRKFuZ99RKmR7Xp+2tONxvrjMGQsuLFzTrCf60Albo?##
?@@6hMs46O8+ELZHKAatjvAj1PU5e4zkHqlsGLAnDrB3TfQ7Mz8SD7BaYm8S/Pqu7Sp35DQ?##
?@@6xs/O6ApeRmLVQJ/jIykz9KysEE9yJ3ZvgXXf6npSg8xR766aJah0LIWtYqjm400GQOi?##
?@@TMRkWZT6SVuLg3dqEj2Y5rUnb/Mnj9tJrONbYT6PBxvChm5TeH0Mlh0jBgm5Aot+eyFN?##
?@@CYRlOPIVr5purHnKBjf1HTq25Y042Q51TALKyVRYL3cmN8uEJYLM7s10d/+fmSq+AusT?##
?@@quxmy7QmM5jg/gyltZZJSxU2EYM6tslKtkmzt7tmLQdS/ACcheWtilS+SwYUrL3Gcy4x?##
?@@o7DhYYQJUlQxsR25DnJaZzulYwPCtxHOWhCHkkhESuv+HFKcJspD35p4SaDBCNHSB6gN?##
?@@wKoKZNW3hAT7jP8//BrcDyOFaDBoo2w6kBaNQKXaTs1Z6QwdaqpJrg2UaSzA9gQ0Lk/5?##
?@@IVIvgWkD7Dzu1eVW8FMG62L+/70MG+Px+H/jQJ2eTWdUJnNhQrbQAgA1TlB9daDW0i4J?##
?@@0kRimkCbATWyjJRgxg3Z7H60PKUrqOqop56e5QWpPh2UiThvazOvLF87fv5ToM1VD5mP?##
?@@b/EAbp9QkyEQEOBMbRxFVmsWiZWn7sNNG4S2dCA5YiTZSb6Mk2so6DAordq0LrHhq0LA?##
?@@eD6sicCRBd+yJodrJeoYILhORpBZwjz0Je6uoueuSmqnWU7JnChSrs44IMaVSbQB5V91?##
?@@AT/Mde/jW3Gh6WqSKJRG9qhBnGYXsKNHJrR3CwoJ5I7R0Vu8JuRSswupO4FCeI7qQ5XV?##
?@@BmorL46j/1Qbfphlc6+yfVOG8Fb1iot7CqDG/GZXHvTqdk+hXEzhaipciLO/mILvFkLq?##
?@@cxNMz6PHeVr4wbBgFIy6tgzqC1lHmLzOjHTzBLNQF6/w/9zQrT+58ZaGSI00uZPysDhE?##
?@@WCtJfUrblTNz33/KZRs2h3vW3JSRuhBvY+axID/mdPaQcu++9BbZbiPjzm0v/Q53fVnB?##
?@@5ejNKQvyWNnAibJcl+qagedb8vPgPCvO69Diw7Bro3fgDrNaKqohmtFi5UgZ2U5kePnt?##
?@@OikMIrnHjiWF36VybebxOfDt+ZPFfWJqKHXQsvVq0E2iNrmbNOXpcvmjEeYvNe6A7eX9?##
?@@/8e9I9QJG72Y6j9zlN67DyLj8RuK7Gsy1fMLlurHHM6dnryViI74PVGh6tPNYFhF9YPd?##
?@@NPaZEIsn3d29cT5PrIMLJKyPNsozk7epoKLnivE3i/RDNXvEq0T8Wy0iz4//QQWwZ+++?##
?@@9XH+ryuQVk0OazWhclCrNDcYNynjYlADDYg1K7IRexP5RBYMWqcY2JxkSIKRV8HSJCWv?##
?@@VhojzBhwQ7fgDhgaiIFUewW+I1JF6t7CWz4x7NzB1T1qH8st6eyA6beTdsr/Wqdh4gdO?##
?@@Gx+8b6bF6KCROjZrT/UFx22PRBXLXnqWWnCiHaJGHgy2NaiAWonKpUQ21B94LYr7S2Up?##
?@@BFkFfr/285lC8Q2BfYAPL7jJVBBAwrp5Hs36CiaOHRNsicQIhLNeJCQYVOmc7c9dDMp/?##
?@@Tc13sd/Zho7z7tWm9Lcng/lt3sKxAviSUCbzO3ES931z5BicEhuFpW8EnMRLg7jdR758?##
?@@Xl+7j+s0qILZKlVw+G4mCRK3Z0NlYMPaI9WnenykDd62FDoyMaGXJmWGXjYR1dsdntIb?##
?@@VyM2JZA+9ijAtuSghsVuukfRQc9ooQySXOsnTdlyvaDxUwlR4O45Gryz638fEDXfZy3f?##
?@@RH/LlrkcIX+nIWT0mIAoP/ryJz6DsD2SjXQ7GNzJbfmlvQ3KBYECSHu0Ycn0eqiI1i3s?##
?@@wbIdvJtMHqbmxLLhWZlu2Ld+wvQo2iJ+EGT56NJxhw4AYjT1RGd1ziMNLEXoj9g0Lz2i?##
?@@TtWKCTJ1yOjhWC3rVn3BxlEw6TbNf3loxpu0Uk8pphn6MzACAt+BhvQWZvtNdJfYeBo9?##
?@@/8e9IzOw8WbV+BbLWyhUPAK5bZiU/dHE7iIjKI/SKfxhOT3acNiDM78KLMK2AYrTbbfJ?##
?@@0DM86cz5E//97GgEnCRqJHmWq8r1uacyYa1V/JBsoz00HaJecO10mpqsSMLhqmkAejAo?##
?@@Ecn9+4EKIc/iidcfmQ/oloZs7E1Y//4TvGwktWyQPXPDKnbrvXs/P8q6ee0YzP9twE+T?##
?@@Co14kHR+4oE/oDrirnr/chNtmjI+SUMMGv4VCFa5vqZhUqoXh5Oa1TVxjQ0Z9O3O/Lxk?##
?@@szoS5x7pWY79ACj4Tl/xgoAUVRU3xT5kNhX19Uss0JNLu8qvJDAJjEFfj8+HfJCklyj6?##
?@@ZJIuooR5qSb1B6ybnpEHbpTajp6iO0kyj/wb71xtCVNwuGXBw1wTpR1lijwIeDWI8Nbr?##
?@@KZfHREntuRgUHSVC6sB6oLG7aKaqTiJsKQGtQbsnsGMF1YA10qN5teBRmG0EEFqm9V4u?##
?@@ZqRUUnB1olqdNEEf2fE5s+0WHmEM2gTU06VA6ya4jhN+AndDlvVo3D3Qw1ulFC2CZBCj?##
?@@00118/7ycEKEmTSumc/INxwOiF38TrU3pIgVWS237c/7AkJzC3lqiLKmr19L+bUSH6AR?##
?@@hKaRrQZKhzGEBkaSEAVy8vD+efMWq3gNDstQ9vxjqoPUfezkN8MyV9qnHY5Q+lKzFdR+?##
?@@2YHoBcDcSIfJtmpWS1sUN/0SMRTmVEUsVwzmxx0oOVHyOBIeJliT5DXOBdfilVPWF2yB?##
?@@vpjkszC3uZjD/ZWeC9RO9I5cKQNZTsi1LScxZomMKacNHf75p/NxdFBH8bCwcvsjfONr?##
?@@37RaF5jnXGtz4kMA4M58F2fG1VLtY0CkeLyZW2c75mk3SwT8c/nLGcAOlcxCG4REvK/6?##
?@@0DM86R2XlRvYWKyvigm7NRwJdW0pVYEH0otBkQ9JCzQ9dhnzDldb1jjUovuWTxRVRJ5Z?##
?@@sSnsNhCVraWs5CxZZjyIxeUHe0JdRWyARUuvG18kRIvbJ9jpgtf8qX9D0/jiL5YtwsXs?##
?@@YoEI8Y9xKuY74Urk7WG1Y6a1DHxm303quVxkRsdFdPATEw6NqTot2w+RjEsz7AeDf9hC?##
?@@D7jXSv8D/gAkwzV1Bg7UY0w7lvaNvZ+RVcBGlMd9ReAV6xneV6XH3nFEazceGcbR1hMS?##
?@@DJ6eQTBJ8541SEw2iaHf18RWMmry9OeSh3IYuwUtQV4pXYT75ZFnCDecObKswf5l0T7l?##
?@@Nf6taDcVTfyniiZzVF/dBgLz/0xb1M4B5BTKop2fQMe5FBd8J5Js6Bp8YA84uN4j89eb?##
?@@IltC2S4j49ctoWs1zTVJ/IbL456WMfpqE6YB+w6XAOKULaUihf5IYegMXTQe4ZqAh4sH?##
?@@W0WChpN4r2QWYhPbECHMmJ3xnIi+fEUdgz+uqYhm+NaztLYaA9MYx4XKF5ZU9jhvb8Mm?##
?@@uGVyoXAwnFKcIfXeC71jaeHt5VZ0fse4jl7dy8TeRL7yZAqTNAa9f4ixYLYQZ3WaZxez?##
?@@BWIY1io3cb6nvqoHYTYuSh9y9cO8BxiE+XopQ0bhE9i+1Hh7NoV4DRDiuzqT+C6weMln?##
?@@xt19dr/FW2MOCauGFxYxswqz6Q5yMqNQfMJBiuJ8pmP08roV5oX8j+d359kv6p8VXvCh?##
?@@25IOtRZUsITZjl7vQIIVdF2YQWbXe5gwQtOyzeaLkoKkWH68TYEvc7wBvsZmdER7UXWo?##
?@@qNtAG4TJC28MHVg6GQOmsS1VhY+1Q7GGqDr0df8Sfrp4dyHyWuI0Qc81Y4DQ6ezgXR5A?##
?@@rQag1IUwqYK5jgsh/1ah83a+u2dpItFPzQjEvPxIJX4Z5WCuGSVrZzAm8YyuTaPBL29u?##
?@@mmM1RSJkoVxd6eDHf0ne9SCSTv6/nOgFF9vsvJRmPGcEVrFch6bIavTXGpT5qEqE5Gxu?##
?@@zyspkUxuWb7c8OLZlwkETGxQbT93dxsvuz+tz/OTMiywrCViwvf+/ZRi3fBFWvUWNOKo?##
?@@OBjmcRgRDGPYNAwba3IoKvsGJfcLI3ZhU08v+qk0kbdnSqgyqqxhAO8Mvj2C688KH2hy?##
?@@5ejNKVjQbdm13KrOTdVK+EYcXliLUiUUQuPEZpJ6xhNrDpLi36qoTNbrfBx6I/QFoPCi?##
?@@oqjOCDIh96G1t4wkt2mPArjwsSx2jLpAFGBD77nMvsWxXspaf1gN5je3sKMz+o6TUqx7?##
?@@jwRjebaxQCF3ImctDiDVN9KzB1aY49tK9kW5Ckiduen9K+WvOi0BYHKJCeVPndgZvtIF?##
?@@uGVyoTHYdUiY7eNP8r8Ksb/I6L+9QxDMLT8xqFF+uZTpgOaperUPd13Glqhp41rnuoZu?##
?@@gYxYpICJ3w45kMSPjfer+XfWuiNsY6vl3TGdcSvNo8hQR3WRTG27lh/2F9E1Hw3KdUg3?##
?@@2on7XfyllNkvIW/HIxEpR3L596BLt0x4CduGp+3SarZKR0H2Cv6Szhl4u/btnLp97KeO?##
?@@A1DyJl41U3uLh0NPR6afeOAVYkHwDlmC9grjrrkBPth7fF2PQtVm2LHLpv+7hIjOn0HV?##
?@@+Is3uBhTJYTBKY9DCCn0QBWpOFwwz+kxlCoosynx3ONzOF+pLOlakheMUPCXN3E4Fo1G?##
?@@3aM0ZpeCPei2PjT+Mvt6qEhujmR/rt3OVwCB97Dzcdr9WrBBdyYOrZzTkUE+WOhiIvMV?##
?@@itkDwCgd4O683K91+U1VVK+5xEmlx+mCrcYbsEr1PbkKdh1xncvcKXAMP1QdYkiznitR?##
?@@ywjcMNUbAzJvkRhDwx8NVOryPjNQerRvMWWBBF9+LFcZNRpZ/GYJzFglU16+pbKOn2MC?##
?@@wKoKZJmWXCQ/8zHPZQ+CsyEW3glXro0xCWvylfRvWixwUcleajkKczMgKUAIy871N6wl?##
?@@Ecn9+2p8mB/PcwoSeKe0yeGrddbliNze3edAg71pKmx24l3WwK6yLg3YJ2a/JGpHdX1I?##
?@@IltC2RyAf32YHmH6L5gTQ6ONk0T3gA1VWrZqNZMoJZ2iJkzeQg3wpSJzcs3kCZoaNlj6?##
?@@R5kEn9cc9tKoz8Fw+VUYWEPp+OKbM88Xwzhb3DPkHAWW4HanYRMiugen3zHJE0+Bbbac?##
?@@wKoKZMmxr1ftf3iI8j10PwkWXDOtVa2SXRO393dj8m8hxnC22ihDx5iH3PN8A13s2r0P?##
?@@wbIdvKoSDbKf1ajbQEha4YCwDdUYuXNW9bqVvZrtpwBOV/4uOzO448TejtBv9RP7E6Db?##
?@@mmM1Ra1hK0xOBbJwSKpVNsHu5nLu6xmyNLWhMmHfvduAIaXZyg9RHRvS7j/Cu78IuZlD?##
?@@W0WChqHJgN467i39w8/lFMPDnTPHGe4eRKqlNxm12m6Vnj819XQhyY2KJVb2cPT1Zhwo?##
?@@NPaZEODX9mXzyRj0wxiGUyX1B7+OmrvBa7zqMPHgwGDgsptTB4bN3YoYyLqACsT07hm3?##
?@@4cWAyI4A7qbvzU3yKyzX/ffepw/RjosR+TD2uRl50AhFH7REafLutj8v9LxmngjvuJbc?##
?@@bujtFRWWnhFVGePT4BmNd+rjh6okfpy1A5BNGEFJjfIpkrDVRlvOMLP0nJF7Bzgn9KY9?##
?@@25IOteSyCHV+QQamZYJafZmRyDz2t78C9BvPh5nMZKNLxLf85R3Cmz7GlmL7V6gTyh1g?##
?@@4L1tb5YAGHdpu3S4lHioeZUZYt+polI5uKudLqEl3vEjCLyYfCnuZRz7oOn0fXlURLo8?##
?@@WTRc1e8ym8rMjnfgSosqmWc9TeRgEt0lfSllJioJ1DwXKePN/u3ZeiVVuBT1YCyolnnX?##
?@@3qtHv0Ms8XxNF7P84l+SeYAABzPPeBPmIS3kSNhlDf/S5tUV5S6D1zFvu1vKCR7FXeiA?##
?@@W0WChpd/kpSip2TQWPAD6fXucl7W/Qq6EyNypv7kp8EtA9aGWqqAngTvXflmLs6DtnBA?##
?@@RH/Lllze0pD7MQ8mHk+18CRWPeP++RWsURD2HjVC7pCN3mWpRLjkA7bJTZ7cjYu0+Lx5?##
?@@ZZtB+oZGtr+86dU5BbCzvALDEDatX97WzCFjVGEyh6Q+03QnH9UFUjly4MQv9ej7Tqrh?##
?@@3qtHv+zJxJX6tlmhtsuyPkR1nvJ4SuC7vbUJF+eFZK+AlsP4o2Luo9PCmpaMrgENhb3B?##
?@@VyM2JSHZwAxrCiDgWHDQsCsGQ2mIrPWFyqd6wSljFTZXN9FEXdfi5ZHIOZXc24SvrTAZ?##
?@@NPaZEAJeJ7g243vUndV5VMOKPOmCifrDwNnxfJ5MiCLMJHpbO2t7tSXlO4HqL2Qo6PXI?##
?@@LboUpTUWINpydL70As1FqpSH9Dbkp6qUQ9lHW6Q7op5tynlifowbt4R2hYYzQAlW4lap?##
?@@unaYUdY8SUIeIuk15ZdqBBvpK/ScTh0J+SklCw/PYJZiGTrOd+i5Fl57YrpkRAmWXrgT?##
?@@12/BVHf24cnYSFR1mRDGPgedUzc/CJ6AeEHyAItFz8Zghppo4mKNPm9aEvK0bdkX6Mq5?##
?@@DJ6eQWvlXJNxEzLvngv8gtlamHzT/ZW0ssTA+wZgVMRRwffABu1x0eqj8fp3rEIivT0h?##
?@@MdxgB2epuVjzGCxliSaTklwlmBvkwP/ihHcJcqtfhAVp2d5bg5DfturK9TgBnCTWvBmq?##
?@@rg+zLR0Yl37rrdGBe0bUdGzOyb7k/XaCzqaJGKkF1DNhZ/D0ixCnTqmPJi9jGHfUKWp5?##
?@@B3M+h4LA7Wvxjqln9tajM4zCekHsOoOLYGnlGI2p13kqfRr1m/VG5PIlcjJ1/Z4Xe/Nt?##
?@@gINETPxV7KfB6pId8fZMfxY304qYpWiEKc5zW1p3OAlgqiKvQW7E4O2HVuY2btckgOs1?##
?@@4cWAyBGysxecs8n9cJjU7xKyoeGens0B3jKLI8R+a/vUEQlxNNskutI1VlrBxvqxRrop?##
?@@fnIem7md3jt16WFMp2yPzFaEYi+ShagTmsxNXybA18+msWcrjFdfz8mUeYFkAeYx6YCw?##
?@@M+2Gt6ycZhkyjXQDXiuQoO/qNy4wet9nC1dqBrsV7cYylpSlFI0GButf/8cWFgOmsNT/?##
?@@/K2EGvUy0qOxx/f4sWsAZo5jwmVyAJlch4VxEB98xCpU5BNZiqE7cY8GqCambnnP8p2R?##
?@@/baXchXf0dsN7tamXm/INlmQYo0HbdhzWDVUQvHoFe6dD2jXkZDEGouy9MOO2zwaDC1L?##
?@@Dq/E8tyggz7Ai1qCUifzsVrySNFwFkF8t8/ytNj6AKMiEye3IadhKocg7nfn2syWMlRL?##
?@@+6VxwTJtnJCHing6Zhiw/fpifjmIygjh1oYU9UFi6dBmdEppgsJzaJelPBErZLcDR+7f?##
?@@SKIX9+22B46CgbnkNn9ZfgeMSTiKrPrpmjoRZgC9AtwmePtEQ+VzgNcv4c4+NAuJzdrd?##
?@@1V6bo66DVIUHQwVDrDFDPpA5QQWYdjxjLJctKNgzTPTegIAnrERYZFu0ZBPQOZMDw8V1?##
?@@ziIWOaZHhGxUFalgflyZ+QrI6LdxqFZa16v5aZ2m5ZDuFoT+UQJWG+HmixDUer2Qeysp?##
?@@I2RVMUaWawUvFaIam2/rQ6u8lGzllKX1iuxE7aq4wabANTUo7vVfiy1ioGiZ3I9Hj1BS?##
?@@sCDZ3jLiEbbHGCkVI9jf9YIefaEo66cdzK2fgQ25NMnuU1YGDGj1FrfW1hP2wF/1DaiY?##
?@@1V6bo15uVDKOPzGzY7djdVo7I1SNClGIsx6mzQ2UId1wrybqp3IEDvPmBb4HrkuEvIMW?##
?@@tlRL8MrYuFT9njIV99JRV0c5alGwPhHxMj/4rojYrXy1yk4WKHmcwUtPjmVYYxJYIkHl?##
?@@x+aQzozexSns29F5v4Stlx0x2ijYimG0Th6oMApMkk0mPgbSb5Fk5vAO+Vr4g/N6Co0y?##
?@@OBjmcaTBwGOig9I6eLN4izx2k78B0RMf/tNfecIWtD3GlLMmQeu4TcczJKkVWXkVJycU?##
?@@KZfHRPFXnr0iBVGmCS7z50eWdrFqS3hKvBtquAVzufVottnFLHMll/Ak5Ujb6sYPPUlg?##
?@@Qm6l5an3vYSncEmiSZACKIRr9Jw4HJvib9xIYar7pHQYnhEiDhadPbqINph8eWdlpCV8?##
?@@g51+VSsGig59sZ86FNSU/BGu5uvFKefcgArxfPZ0Ms3/HlATF91+DGa92gNowvxfgyiJ?##
?@@QF1/NF69VVKHTj18644oJ62l6m/KbjyMompBXf28+WGlprixb8js5QNpNVQfAesz4cTp?##
?@@gYxYpDiiCR5dl6y7irPbK5Ko8o6QzQrckpjdG1SkiV8UrmdqQ7MsqOKHsMaU+mq6V9Y6?##
?@@sjH/joqsTWnyhWEhWexK/BkVZDqVRU+0Rz/HVCC5QI9KU4bWEKLgzj7VTQ27aacHWftF?##
?@@h7/KtuQitoatdT7bXhCpf2lrNVUsEjDgGTP+JPuzWXreOo79o8usiWFfGT4+0c7vYRLc?##
?@@rP6MfKlIhht0a/WYvFZRe8YutC7FQHJM/4doow+ba15950puTmVfNbIoZH67vXvQRhDL?##
?@@tUs4lyzzpnOGRobg0g6Y54l2usgJaAh3iu2VySpg38hhluPqSqMMcAjqBqFB8IlIp/Vt?##
?@@Xl+7j/iRtVgKJH/UtW7knYw2ymBi9iyys09rFZgcRimlu9qAlDIIswZGCZPtOZYYm9pc?##
?@@T96dYkbH9AzIRJ4MloUBDDp/lZDxvKEut6k+GjjmP9XhGni02V/oF+oPz4bdBxc1oUBs?##
?@@7CRSlGKVrnfzeBg4751RW91RYgbzFb2fqkwzZUOzcQ5GD2oGCTzdbM+RiN2flra/Xugl?##
?@@7Sxl7OD/ePidG9nl5G8IZycKKTb6j+klrnFPab5YJXzijfc5iBN0LErnZLsZ5yrrIUY+?##
?@@ygDJ17dyXJS4U6mCP2Hns9RguEdtkEiUWiivN6hIOAa1VbsvgmLA8FDGcCJAtcN8qb0s?##
?@@49aneLdbxvmoMkGAA0ErxJ8YRWVdpM3Gkc6q+01cvdAxGuvS9iyTTQQ/SmvsmWXB8N2B?##
?@@XE6V3xECnPccGtdLPzIyxHMbWEB6c0sOTFZcMkgq9q5DQwB926wSAhzpG0XNpIET6Y3z?##
?@@qeRTc4nCRM77/Oec0rGSQEDGjVAyFuS5uT4KF4CWn/Lsd8e2v3hzJNWWUyuAVBaONPW+?##
?@@+pxeaUPTeuR2hexMl/URnakaQ9dPhU5HRVJW4+vuwbg9LkJRv2wHqzsBuegWHA/WzKLh?##
?@@b/EAbtkrEurkSeu2NOm3ZfBRz1t62m/FDq2P9ViTntE2bRWusGCKmV25HeVh2pLIWxqq?##
?@@TMRkWWNlo7qbuvlZmM1ELEHyg1mPz7MUtLHbfmoweAFDcIRhQu7Bc3KMOaZdMf58K2cH?##
?@@vZDRWoxwmV2Q3vJLMqxTls+nrzgR3UvAbPpMJ1gVhvXKip4sgBwLjgs0qvbMsn+aihS6?##
?@@TtWKCao4xBepuYKKNXfjpocWP/EeOXI485fr3p7/zQJtFPkHMxr1f8hZYGiRSjz0LUwF?##
?@@P1Rs3FKXE5T2m7CsnYq9Wbz3e9CCZSZ09Yp9xPrZlx0vnOVALBtoLyGAlhH7CZhKrAlt?##
?@@jOoqcBKEYPys48+yqnz/oKfgLklru8a0L2crrnibI/s5s4BdDMnKtZS08R9PTovBG25Y?##
?@@IVIvgd+Zwj2V60kCSvVCCVo/HBiqPSWTEVIHPNYPR+TyPoi2tzVPb9SafkVLv4+mCYWC?##
?@@quxmy8IWS1QtsOjpHVDCSfAllg+wbMWB/gt+scjMJU5FDJXytSfj1/vRekhfWa29sX5m?##
?@@VyM2Jf0tNxP9HwrfOoYrfsyJBS0hC41p7jp00CH4alMVSQxYNTMrv7ufX1WDhn7gw8am?##
?@@SKIX98DbSFORSep6cqQIlAld1O9DUaV06r63hi2iLxULa0IpMhtsTEoY1naCN2JwvX3M?##
?@@idHwZ++v2z4rhLF/m5elMRJKkOaYlaDvUPJTv12ElNMS5Jj3NyrwLJ3G19C6OxDJWTOn?##
?@@GhapFmcfK3KlIO06EVPUANM4+37eqtr4mYvA9zPln5GcHa2Mclsr6KoS9+YoWnxrYCEa?##
?@@szoS50YLg8/JYdv4Xt1K4Tpk3hC4O9s6TATY2UfRiI5KhMJU32uGaA60tomwgSa0NlDu?##
?@@zBHviCvMM50fDj3Oc6TZGkaj1xKrRatr11FqnWsGCjgs5p2aZLw7+2a5jLcM+LLH3x8N?##
?@@xdVqHbzMKnTxQz/V4+9XJZBgjYVvRIyJ4+0eapj3heq9tbfSJTeX4x0CJPJ5pxiNOatA?##
?@@wrswFNJJBkNzYuqzpt8L6066ggDsEY0Vpdwb6mBFYSrZQWyEWyP5Pxuk+X6s4OmVyVBL?##
?@@NxDTGamemD3RCSgxtSm0k0ytTrB9QQlvYTrjHjm1ISubDhnqFuhxsI8Ht/hHnzC92x6M?##
?@@uGVyoTM7TSOP6mI9rT+hrEZufsXvXtkWtkz/Ae8PxT3Ksoh+/S4qbIs2WVLepyrZkvMk?##
?@@nX1uT0ZoWr9moBFJ3FuV1oAlEk0V9mraAiTcV6+wMBgf7ZnP+Vb2lDdXTw93YRieAV/s?##
?@@8lfFpvZ8/VfvZxAjDhSNufYPFT/mbhgeblm/Yk+xMybzMQdoWcvAb4FzvXExWxPnpdNV?##
?@@t1xeSJxH7jAAyECabExAUxwUZ+2EP4hSSAYklpyVrtwPxWGhqbmpyoi/Pmy4oSA0mg20?##
?@@CHtR4B3IT6vdlde8QUdnRfRC88VQYpPK8GU22r050vmE060SsTv1Vsk6Jh9ojPJzWy/b?##
?@@XVaoN8dKBedbHHQwqQ8cdHZBgtFmKLZpG09LIb1SYENv01UULzxBn6tzzvveeSJduxFJ?##
?@@sjH/jvKFTyRg/azvMdOM8WhNk2qLJW12/xj3Mkf86hO6rXAS3VwaGDDVrxv8KoJIjKL+?##
?@@jwRjeUGqkbRiuoohOHPm+8w06to37ENcSSNzc57RB8kOOZjjJKwLsY5XQUiUjLhiLQCu?##
?@@aLV6AzovIOt4ey81AObnfOQRr2OMpTj74THclMcfzkrJ2TnL0cBEUvU1YrUJ6EG469z4?##
?@@CYRlOE8l4WbiBge3UMMR0669id5opEfyG879wXxBDw1TIaUDZ2e+eKnymzZrGVRpEXqD?##
?@@kh6cg4kd3Rx35qKQvraPtAVKij0u7XqtwZubPU8oSBlvhPEl3JAdEYFmjmCYnlYDJVAg?##
?@@D7jXSj1d1BJ69O2YFdM12mml5MTSk9KBp1RYPc7qX7D6ilKv9ozW1nLA4fWkY1ZxdmAa?##
?@@gINETHg0nGypVHcgRPbf35WnzNptb+KT1eIuMyk0UvW4Coc0qAJwFKZUZX/B/ZRq3Q+j?##
?@@nX1uT7HjQaWHmJ+gjzd5pj89ZJ4MX1fx38hJw9iBbyX9bv+9jTRZH0u6txD6ff6sYVoy?##
?@@3qtHvzJiKbAx0nws/jgeG5+lkxIsZk2tImox96vsJuAaCuvaDewxAxjeW4JbyoQ3B+bP?##
?@@o7DhYZG0QAipnkotmKerzOWKW7VgXMFysoyw+/cfFcBI9azh034HWljqxeJsYp5hqeWq?##
?@@EMDqomB7sEXAH4yZG+BFryLDDTcCPpSYr0QzWzg/mhsj0K57Tsy+WrRXlmVI7kxBSLwr?##
?@@/baXcpF4vZC2U2kLV4KspTeJTFu8YU3rqzsNIicM+l2rSMj7bT/V3nbNRGddqrdn/SnH?##
?@@NgfAwU1CfOBuBMoN7Q3WB1U6g5dDsmvpPsPrMYB/KZbFegpPKej7lZ78M2mFdwHv2GgX?##
?@@25IOtdz/NZP5nTw5E8hwrJvOT2yZX6asBglQWH+fo9OYhcxDLsv96nWlAyvdE0kMAQJu?##
?@@MNNNrsb/kuCt4fVNRpvCu6v5e6MKNMgQ7BjCK25rmib5KWh7Uj/GALULTLLjGmPzGqKQ?##
?@@/baXchfDx5PVkZeZay/mOqgSmaNLnGDZr/m6AmS23Ye/A/qKY5/YvlFGIC9LrHLmhj5c?##
?@@+pxeafUHZAwO9AzuOolOArlQEkC+sRlyzBKguRn777O4nqYyZveOekKVKvUW6aeKcryM?##
?@@n46U/6S9soKouHJkwVRsk/umT7KEmcY4CZiPylysrfTiUqxaQiNTKUrdDDgDL12+hDmh?##
?@@hKaRrTYm2aoMuJqnd/npOwtJSt+yxriSgMNnE6Ec7V68x6GknPiguPD9C3sY6t4I6e3z?##
?@@+ZRLERPnGuc0KQaR/XxLDVuJseZc6VLegy86PbMmpYHSMR2dmjHYXShAzZXvRBbtIhUU?##
?@@Dq/E8mQ8NIrppS9nk31HqJGq/0OhR67pPDjM0Qg9Q3RvEXEJzt6Y8q+3R22eOHQbRrH0?##
?@@jwRjeVIpCG02+FC+1BohNybaoQi8vWuirI/GN6f/vI1HEVEzwvM5TXymp9lC/DW76puk?##
?@@nHRb9pKfmtqY4iLDCKVjUdtA/2aAde2y2tYafGFT7hLlrDBsyovhk3LG2J3LxONNIeCZ?##
?@@pcEHEicq78t8rJ62uuBiZvgusOJheS9Xo8HHHshMe4Pyu1KYxKQiNqcMRTeIoplrLMZo?##
?@@4s6TIBz8QDTW4qesXw+2oVOg83/kDhdMaB/j7CUkt71DKivdoWJ76FgXSqvqc6WzrNrJ?##
?@@b/EAblYYYWJ+8ehw9P/GbIAd3ouHaMnna/caJwTEWHWu/0WnGSUw1JFs66qCJQDFZm5d?##
?@@KI+065e932znVK5eK6Zvr7Czw84Cdx+OE/mKZ7Xla3w9/3CNH0lb0Cn975SMUe4X9WGs?##
?@@pcEHEgLBPW9zmaEH24Oww0wSHdo4dsQ+dIyN/nKzCBqHIwdGQA7Ylca1/EJnohn9a5Xt?##
?@@0kRimpKIa/Gx3HHTZh8WJuRFonc0g8tvoF75G94ToLiJ9UZCXsz36tFoIvfb/K7ikIK1?##
?@@v6H3C/uk6hBy0iHcZFdidrOVs//b57FbzO5kys2GMcHqL1nOXEQ0xEwNDYGOPqiWM2Ln?##
?@@ADe5HZUy39tHRSVjO9pfYH9JsnrrYNu+KwgzGz2gE9QRz0XH8qkiruTvZ5YQo4v5hxDF?##
?@@7Sxl7EJedKkAPNdJkoZXRVvwO4P1MugMzldMHea2kuhaKsKDPScLDUjwRoSHdFCp/t6O?##
?@@kh6cgxwImgYDkpiX48yoU5xpfYJSIlvfXqKgNAkry73rR0JJAHtK4SbhSyE8dmbFpzc+?##
?@@UwDpw903YkEGNBFv1iMzzQrnN/tpXSBXQ3d5vrb6q79vfaorzhNdDjchtc8hRy7E0/Wb?##
?@@6AEGMuDsi69V6jsqolzHfamoB3ruXLOXZMSbB4C9mHVLCmmqCyjzSIXXUUc/cf9KOHFV?##
?@@yfe2f+MVUpKZcv8aVw/87235O0rrlT0gnicXEOGUU9FpO0kYhug02N6jFRIERsKQBm8+?##
?@@jvxQITUaTsVp1ZWCqNshQz+HYQMWLD3ek/MZ1zm1T6A7FnX5VwDVxvfw2c1XjibPteiU?##
?@@h7/KtvErgLVbW4lNKpV1e+6Wmo9mUxbAl/F5OeXASYm1Mqxc20GOYZO57dybxRusXmkf?##
?@@xMxXxXb/erefTKuoFmOlGiv5jek8kCTIKcun4mCIQjRFlSA4GG5XhfOYp+nPwOAYlIUy?##
?@@Ecn9+xwrZjKw3qtfPyJKe5X9/1EVqIr+I3A0ixVnaP1YfU5EXaf5YNmxcvDyNwwt9C8U?##
?@@8lfFpo93tVltKwZoCYVHbkHZBQKa0vQZvdJ5nD+WNRBYcEIiE/Mcrvej+chQBfiXGrLp?##
?@@q/V5JEC1ghhyl1aOzscPlHu2tb7c9c4jXF/gy+9qFrDbQTTnIJdy04VUiFAt+IIiQK1h?##
?@@BFkFfgB81xrDi4ck8vTF5g9HFr9t3KWG4Hokkvr+OCEjJeVNEVoHVgnQ1vW+z/Dt9bBi?##
?@@Ue/DEn91lEwTYK2JrxKnExeAjiGafHb2M4gAgEPS2dh/EAGLAQhfdgD+MrCVwF6XRBv8?##
?@@Co14kJ2JA52WwedGnY1Anlb/UedofFWdwVh9YUMyEB6mWeryIl51qZ3tYyY5ETv15Ho7?##
?@@jwRjeXyI41Pz9yxfAGbLe53kAKeerIVzU0sUpjO/zisfS+pEHuV9VEZnnPN81oj61qMg?##
?@@aLV6A1J9jjVcPghuuXf63C3QbUc+DVwZ84iW2sjJrakSu/0TAPsTaoTGib3I+M9D3oc9?##
?@@pcEHEr81Qb0RsBrBuT6JPEcvOH8Guee44Q+bFiIEuBogENpVDkAvyF1C2VVzH4Rd9Cwm?##
?@@di2G2MSNex1ne/rANdxoJfPNR1kt8bNv5jjhBNowsDX+PLGEj8E68TO1/z4KqIPGHHEc?##
?@@+6VxwVn7bzmSqOIZ6+CRH8rzHjIC+cEHx60tlNqQ4bnY9Wp03QF+NV8rEEUy5hglU2zq?##
?@@3JohDgeRYZ2ABLgFHryz9EXomGoUKdzY9ml6ApnErSbE1TmBfrzyZ/nes1KpKbQg3Df2?##
?@@4cWAyG0Mdz2r1uGtE03OS5yj+SEollpZr7vPQv62QlrYRoo5LotAGR07cyIvnKEDf+s4?##
?@@lkDo5CJmNxZS78ryIyxB1pEy5EXM2zFev0gQzVVv+PPiPSFXUdSwdtxv6MRZ75V/N8Bn?##
?@@n46U/9fUwHkwozGfDDlqwykHqOShbdyDPjtpVqqGrLU0gHcJJbFp19ghgIrFvY9J69J7?##
?@@lC/CM4W1OQRfyvyKmuey28Y62PEMb8txjuL9Ybr8lyJ0z9bQHLhKmyyofoM5M/sASM5P?##
?@@/baXcgX777J7QiQ96Hi9XvCV6R5zo4/Ber4a8W98oMN4fvsfUBVh15cg1mvD1uIcehbS?##
?@@TtWKCVomu/Qa5GzZb0MRgQYKPw1wjPukFlTCTLLyonq2LJm38ri/T13Cx9XJKiLZ7fw9?##
?@@t1xeSPoKhEa7oqcfNrfXzYNH0MGbUWhTZld2vDB+VN9cpSzy360ehEKDwfZ/a6rq/lOy?##
?@@WCtJffrdAeZ8oB8WNBrnabysjT2PRKZVsOEiNZh4t8QOCe63wPA6xMs19JV5e3xc0HIf?##
?@@Ecn9+6M+52bc1QY7zvZQQaULWSn4yC7Eo45cu85PzcpAV5+ykZ9WcUhoBI801DTMnPkF?##
?@@cgs5d5CPvQanBb4WwbUqjMbFCzZilv7yOp2Jwx0XzSG/tjklYv+uYcla69mpmpe6UppF?##
?@@B3M+h3kVntikEIONLdfzTIi/LaQyEBLuL93LaPIyE87zecL/cjKzfdo31I15SitIvbUa?##
?@@EMDqorg1lcvOoiMAx7HPAZM12acWoE1Aeq1o6RkacnOX0nOhxwbcQZir22dOCwXTb9Mv?##
?@@idHwZypiN+eP14iNWEjU+zOuPAEtBHindrI7og253CrJmgTJqsKwrSMGey9o1khtarBw?##
?@@lkDo5DHdQg/LRFWhfJzIH6AzDreVf3yQcYQdOosjjfKjOi3DOnppvcHztH09kfgwd/Lh?##
?@@cxNMzzmQJzeJcGVIZe8474h1gYSH/ZQDWt3K5lYv0K2yf7IjfYZCwb2xYn64MF+lv6Ti?##
?@@JGxoira3pPk2EFvVqNdiPMft0AGz7N94XTCNCE7ksnuraatCY4amay/D8qVnTgEiRuxB?##
?@@LboUpf0RIhtdSjzyNOQHlCbkyRuRgNmpQ+4rnPACb9JoiaU2tMoPfJKca5FGCVW1MH8T?##
?@@mmM1RUVgfXlmhmfgpoYWgZNkZCRY7XAI+pYpE2UyYuwqAc9hFA03Sa424TFXoB7NAgp3?##
?@@B3M+h6Xd4KC4dX02qlKeEa9wOianNnRFlpDvzeVz04hv5MFWk6vxwOF1EZWwthOBSFyR?##
?@@kA120orjR/91Pnn+Rz8s87jOAFiCl1DdZmrSBv713A3m3xzlI7Sw/+6RCL4fp9fSAcn5?##
?@@rQag1CrX5tHOIBddDjt7KGEbRoCd5hhmsM7re4ko+Z+KzX7rUidbf8cLuKKkUj2WweSn?##
?@@WjxvLqUW7+RntHB7NVvWBlziwesF0Ja3+9Lv/c3SlabUL0AfBUaOXDuASRMd+uxDSue6?##
?@@g51+VQPY2ge/0pCLPsMMH8niuYspr/6rpXAWlAQz4EwishaAxnTOZwsNR7juEJB6oCls?##
?@@OBjmcVgLrD66mrp0gae6o3KbaQGR1uKBYRd2JJRzV5tKXo4h0b5y3/GRKSGoKP35yGTl?##
?@@RYje7mpFrTHYbM0KENyoiVvKakXIwX0GCwXdAO1HyxE71ocwMxgB6e9UAKAWvd6I8Etk?##
?@@LsIn/gRW3WeKFZlXouPNZ6cfsrvr8WXbpQ3Naz5n1RaVoCkugPDv/lgGyOw16kgB1K/T?##
?@@m2tInvNEP0PG9RhjkqWeMy0dKCZD6G6NvaA6msDtv/cL0oxlt9tdA43kQohBOT2ycJNX?##
?@@jOoqcBdhjOHgHRXtg0jXven1xUL7cg0EBPHbox7qPYdFGU9kH4R1y/w8uQAHpOiai3LJ?##
?@@uW2F+UkuOJUbxBerJlPTbc/WZqCf95Ypm3pytsIZMYTkfUS74Hj1iGT6acz7fD5x43/2?##
?@@YoEI8TfB/1aqjX4bPfHDxWiaM86/8LllYv/KRmdoCwXXwcTwClZAGxYJQdE0p/xpeLA+?##
?@@VyM2JUS/qVnCz25U5dgyozHOal2K4Qc1Gm5mKNmeEFH8uHApitZOykJ0B+XwT7K7dXpu?##
?@@TMRkWanshNle7MKCZRlI6PQcXcFeWTYXHTt3pWR7nTjAxBSU0PPrgwWJ5+xtslOreLLh?##
?@@7Sxl7PVCjayPMN6c5U+fWel+O8GR+VQyDMJ6owYamUIUQHryAxcQtWGYy1mTbroXtvhV?##
?@@ziIWORvPuDFJHVGr5xtWwnsm/FVjXQtKFtQ75S2YZ6XGMAaCv7V/WIlhtiW5CGoC4919?##
?@@R5kEn7fV0xES+MRGGapzBQZKNCOedlgRzDNhI31JHBe7lRDdiyVNeg46F2uS7ORubvXw?##
?@@yO6jJuwP2T9N7IpPqgQerSHOu9b9rj4OQ0e0kf+TTHzYUE1fBCObr2mhqYtJhsxw3Yxb?##
?@@Ue/DEtD6CxHGI4zkQD4v+2iC3fVpppWxLOZWzMDtqDsiMzuA8H/2KI2vjP4WMROrQtfj?##
?@@NgfAwc/tANcT/1JdJVBtLOnWnnozRuVT9hn2n2bCSs8G+OWby8Zw8fiqo9zPA/591TQW?##
?@@t1xeSLlNBqoULcQeWKwHy5UAnzsabXTy0b+UsY7TWB4wFenpfyZnGbmG8j7rVmDNPfnw?##
?@@bNfHZJZozjuDvCiYSXCZsCSCam4Ggok0QwXZZNrYCz/HcfnWX0cKiVCJ641RSh5I0cer?##
?@@3aM0Zl62Clkc5n2RhET2lXFXH3V8Heow85Sn/8BxLVIA5d/ElW0hGpKYmS44UHXUuGU+?##
?@@4s6TIIq2+3h2QF/XTFG6yL4LTvIjyOLe4VtfJrzbXgc2s9XKbaa/0h4D9YZeJV2jEI3T?##
?@@49aneIayo3QS0K+RDEFHqqBckjADUOeg/lCBJoqXOYwoAKhsPkr+H3PhUhYsJEdSKNGH?##
?@@ZJIuolpgHkNfNnyj+fGnIsCBQP0wjLnY0JrS+e4ivY/CLtfZ0trQBv0VZC0dA26S4tul?##
?@@DaaxmdUhXJdhAcHoiGtzJwHNSO3wbYFK4odREppzvGQp0cnek6/lLiIJxABN98Kv/KQZ?##
?@@3qtHv9LQooD1aJMk2/FqPDYF07pkhZZqOTK9ShnwAjc/Zw2mjrhKsaxkxSU0RSGlIDpb?##
?@@jwRjeRj58ZvmQLPm+TD4Vqj794MTq+PLEo4ysJqDXIWh8ot2QfW+Yq5DaxWGWKvtNv0D?##
?@@YHDiQFIf/RarNSiTVzEeK2mENfybVJ4Q53SDrzWj1VLIaXk8Znr5IMGbHPmLGg2RubHW?##
?@@ha6kBnsH2k37rDlNsDBT0uSTQtcSf13yY3iZvk2RQ9guZP77sKpM0Z+8RkgOjTS+6GGO?##
?@@6hMs4/YBblG5dpoHCuIzYdZJwWRasloa17GNAwxU0hS4lIb/EZhef0E4EfOQK1oUqVnH?##
?@@n46U/5gPnpGbAL/WNm8gnZvab5GfHX8mfXbkd5+C7iy0bEs1AOiz5vqiXQwX3SLbDQ9h?##
?@@OBjmcc6gGozpfTNvnQXBu8AeokWZJEHDQpOf+gVRwBsRlCVkJlKY1S1p2CDbl2NebEdL?##
?@@cQImHlHbTGlUjpktqnOGndcoAHwkdygTFPi9q56M6+c7Qp1u3sVKkewPKrsZLjQ4NyTy?##
?@@VhojzBuL3xgcVXHjv2+CFpenNZ8YIWPq2/Ke3h0P3v4QwdTCAYBISQ6TrURSo+tiRBYo?##
?@@g51+VbG779w77KAG9PgtP74xfvXDonhtV0fsmi0X5IaQIt6mjV7DyEQwvMmv0/9L+52J?##
?@@FOM3BPxjl0xWnyUUmH0Trh8iEExH/dk0uAfI7gIx22Hh5YxiWvstxUJ0PpBD11uDXg66?##
?@@5ejNKZ5w+F5iFhOTtb4seOk8HLXfJS+Dh/tRnr6Eeb1Uhgh9UDNLhma8fIH9dPEkGat5?##
?@@jvxQIcsU06KSaCHsEEMT81mTHia6rhBK0H8i32PdM9fLZ15vMiwDPPrMn9J2wXmzE7re?##
?@@l0n8PDBbz0nSuz0w24yEHBHfukPLKijZL4nA21FZdZaE1mB7g+T7JFfoY0rNLFbkP6eM?##
?@@dBxfJ7nHhEsewfRJtJqnSurijAO2tvFloHbvsUD1a7g8peZKEdvJ7S6qsj0vj+i9ORFF?##
?@@uW2F+QQkjHgZnqxRiXif0lL/4ECSbMWeIjtUoh+t/AL471jLoxd1pOne4BeI4e7BScyu?##
?@@vpjkszy/h8gkbloHMGaT4ZWjl1iqaTGY1H2ypRzA0LIWtwwAR15MD5a/pQmZ4dWCaNb0?##
?@@jwRjeQ5Ty0EE6cckGpymk8JCNKgXXYyTz1xlEjHqmj42y5l8iyBbrljLa2iLctLoWKY3?##
?@@LLEBTT8l6LzeYZiiFlT0rSDpgsITei0hFat48ZBjbAheQe++IRWbq9Y05XabctuU9QXS?##
?@@sSnsNjZXm3/G0bKRCcQ2wmZ3jw4qexHkb8LTDgsfBHUFXsrlgVq0qmNn9wNeL/klumVT?##
?@@lkDo5H611AaX/ElJ3DhSVnDYrLUhbDr0SKGc6flTq2Xg85s0Xuq9Z9ajBmRtcuAQOip2?##
?@@cxNMz060dzZt6ZnteVp84I/U0rwNahUNzD/NVEOPmBbMiu16jaJ8OK4asCVWviXp3Ibk?##
?@@NPaZEHMcRz9mxceTdm0MHD57XdQq6/jhDpvfIil1HswIdsHJCEHtfnRG6CD+xXPaZ7gA?##
?@@Tc13sSnM43luaQEt7B2NPgB3DIDZmQ9FktW3JEVTVqA5NJTW/wRK+5MtFR1an5/Ck+aW?##
?@@7jV5RL8TU4EO40hZ1oLYgnk1V3jvdkjRjyK4DJu5MQxWRMmUv9D3y1YEzczM5VaCBWSN?##
?@@00118ytrTW2pmtdug7vRy1C8epxkyP3/sl9Nr+iQ8seVjykPVTaND7cct7SHzH4Bl1GW?##
?@@pLn0udVlm8gqhafgDJJWysHS2g41r+7/E9PUwBuBjcOBEWPdz3gbcA9lBXfgBhtWrcrL?##
?@@xdVqHVlJAxLt/AQYr7whz9RV3l3IbBsWDOB3A0vAq3f9VScpaVL/ur/IimZlAvKFS2kQ?##
?@@7jV5RBFHZ3IhonQ9S3h/KXr1OBkqolkjyQAymnL52rzOJ0GlVHjdOCS5OFpGsgSKsTcM?##
?@@+6VxwctG+TnFeF8wSZtgeilqB6f4Ic5tBvMuqT++kmMTZMyPQ4XC8Ykywev4/Fm9N4Cc?##
?@@hKaRrTPZBqV9ErMxWfQE5oDiJngMSkn5G4lefDPJPwU+YRiAycHCJwbgBsaVKkJGp7N/?##
?@@Ecn9+4GbtCgyo9fJfSmLqcKvVYtSpic7ZXaEOJNjv2nYDWSjQXb/S1PSVXn1PyaKVJNq?##
?@@elDSOrsLJM64PM5DYuXej68iF4cCTm9VHPJ7I7/WH5KDZ3S8kmPqSqKkfE0QhJUmiHgo?##
?@@J4ahkw398mcoeBXJlw2w441R139gFJJP/O9Dufpx91XuFhw7gN62BRdEbPzuIW3M0jVQ?##
?@@ADe5HZBF2O94vOr6GoDGEcYD81/ECnm/H9MUJF11F3mGam6G29yB42xdPwDmwUAlc5bJ?##
?@@5ejNKficxvgenv/8H2bJiEZ2BetIcvgArSxQKhDWTt3ODQ1EBrBelw2MFgPqmDVBs9Ps?##
?@@noWBpxSjjKCMhnrEnYqk+VTpjSrjoOYi/vyeEzqHeg7tzXoGtXugycFcARP4xW7xm4QN?##
?@@f3sx807M+Q+rs4CrHVLPv3H+JjJe2Ipmaq/GEZY9v6PuyqLTVRrYzSzA2+SNAto7zALH?##
?@@ZJIuooxFz/s5VK2tIi07AnoIjA9OWyNzR1NOhTRhG9HPYmQwxTQdRAoZSZ+c5sJqbm1Y?##
?@@SaoqUCU27xcEjuSDP+EBhA4+aVXxk/S3dO+ICZP4NQux7iLcE9bRnpgKRCFyJnKd4sh6?##
?@@tlRL8J9b2e0YKhtchTDo8OnhTu1FAQkVsCajzNWSyBd+OUF0HF0u6OW+/KiF7g2Y3mpW?##
?@@H0EJ0GvwtQOKe4ekvjCofbg0gdBpTsXMEsR2STS1kp0vHuY/d9wdVlW7x/7OXJTsl9pb?##
?@@tEIlP7eINDrFhIzsL2TegN8M1Oi3+G0vtqfdAKTAdcpxW1ZQuuQvNb5Hy7cSEme5Nkbz?##
?@@zRkC4MEU6B7aBFMMSrKL+K/UZsv0ASiHUGp4AZKr/GfzGrBehs/rxmJ+MHZj1B5mlPOy?##
?@@2on7XWL8plJtXWg/GiPywPRvXmEHqswmBfEn/jEm+wfGYjtVEY37wHa3dhX5nCAKTD+a?##